data/Network_01R-10/scenario_1/case.raw
 0,    100, 33, 0, 0, 60.0 / Header line 1
Header line 2
Header line 3
     1,'',   138, 1, 1, 1, 1, 1.0206353, -94.784709, 1.1, 0.9, 1.1, 0.9
     2,'',   138, 1, 1, 1, 1, 1.020269, -94.82973, 1.1, 0.9, 1.1, 0.9
     3,'',   138, 1, 1, 1, 1, 1.0181841, -97.073431, 1.1, 0.9, 1.1, 0.9
     4,'',   138, 1, 1, 1, 1, 1.0168238, -97.229531, 1.1, 0.9, 1.1, 0.9
     5,'',   138, 1, 1, 1, 1, 0.98898689, -59.791756, 1.1, 0.9, 1.1, 0.9
     6,'',   138, 1, 1, 1, 1, 0.98896501, -59.794633, 1.1, 0.9, 1.1, 0.9
     7,'',   345, 1, 1, 1, 1, 1.0347006, -92.387018, 1.1, 0.9, 1.1, 0.9
     8,'',   138, 1, 1, 1, 1, 1.0301018, -93.75685, 1.1, 0.9, 1.1, 0.9
     9,'',  13.8, 2, 1, 1, 1, 1.04, -91.505116, 1.1, 0.9, 1.1, 0.9
    10,'',   138, 1, 1, 1, 1, 1.033249, -87.804532, 1.1, 0.9, 1.1, 0.9
    11,'',   138, 1, 1, 1, 1, 1.0332362, -87.805957, 1.1, 0.9, 1.1, 0.9
    12,'',   138, 1, 1, 1, 1, 1.0191059, -83.389786, 1.1, 0.9, 1.1, 0.9
    13,'',   138, 1, 1, 1, 1, 1.0188674, -83.417051, 1.1, 0.9, 1.1, 0.9
    14,'',   345, 1, 1, 1, 1, 1.0356412, -76.974351, 1.1, 0.9, 1.1, 0.9
    15,'',   138, 1, 1, 1, 1, 1.0323092, -78.480155, 1.1, 0.9, 1.1, 0.9
    16,'',  13.8, 2, 1, 1, 1, 1.0356412, -76.974351, 1.1, 0.9, 1.1, 0.9
    17,'',  13.8, 3, 1, 1, 1, 1.04, -73.600274, 1.1, 0.9, 1.1, 0.9
    18,'',  13.8, 2, 1, 1, 1, 1.04, -75.61798, 1.1, 0.9, 1.1, 0.9
    19,'',   138, 1, 1, 1, 1, 1.0307489, -92.690009, 1.1, 0.9, 1.1, 0.9
    20,'',   138, 1, 1, 1, 1, 1.0307242, -92.693261, 1.1, 0.9, 1.1, 0.9
    21,'',   138, 1, 1, 1, 1, 1.0210624, -92.976317, 1.1, 0.9, 1.1, 0.9
    22,'',   138, 1, 1, 1, 1, 1.0197255, -93.133754, 1.1, 0.9, 1.1, 0.9
    23,'',   345, 1, 1, 1, 1, 1.0343849, -82.824706, 1.1, 0.9, 1.1, 0.9
    24,'',   138, 1, 1, 1, 1, 1.0284627, -83.653454, 1.1, 0.9, 1.1, 0.9
    25,'',   138, 1, 1, 1, 1, 1.0284496, -83.655052, 1.1, 0.9, 1.1, 0.9
    26,'',   138, 1, 1, 1, 1, 1.0283404, -83.669106, 1.1, 0.9, 1.1, 0.9
    27,'',   138, 1, 1, 1, 1, 1.0096693, -84.855427, 1.1, 0.9, 1.1, 0.9
    28,'',   138, 1, 1, 1, 1, 1.0092638, -84.905267, 1.1, 0.9, 1.1, 0.9
    29,'',   138, 1, 1, 1, 1, 1.0153084, -96.22728, 1.1, 0.9, 1.1, 0.9
    30,'',   138, 1, 1, 1, 1, 1.0143664, -96.338429, 1.1, 0.9, 1.1, 0.9
    31,'',   138, 1, 1, 1, 1, 1.0335568, -92.735702, 1.1, 0.9, 1.1, 0.9
    32,'',   138, 1, 1, 1, 1, 1.0335051, -92.741768, 1.1, 0.9, 1.1, 0.9
    33,'',   138, 1, 1, 1, 1, 1.0264629, -91.512948, 1.1, 0.9, 1.1, 0.9
    34,'',   138, 1, 1, 1, 1, 1.0263331, -91.527992, 1.1, 0.9, 1.1, 0.9
    35,'',   138, 1, 1, 1, 1, 1.0343279, -92.112162, 1.1, 0.9, 1.1, 0.9
    36,'',   138, 1, 1, 1, 1, 1.0341208, -92.135858, 1.1, 0.9, 1.1, 0.9
    37,'',   138, 1, 1, 1, 1, 0.98901193, -62.610542, 1.1, 0.9, 1.1, 0.9
    38,'',   138, 1, 1, 1, 1, 0.98901103, -62.610668, 1.1, 0.9, 1.1, 0.9
    39,'',   345, 1, 1, 1, 1, 1.0342497, -82.261417, 1.1, 0.9, 1.1, 0.9
    40,'',   138, 1, 1, 1, 1, 1.032116, -82.705326, 1.1, 0.9, 1.1, 0.9
    41,'',   138, 1, 1, 1, 1, 1.0317644, -82.748975, 1.1, 0.9, 1.1, 0.9
    42,'',   138, 1, 1, 1, 1, 1.0363056, -90.832777, 1.1, 0.9, 1.1, 0.9
    43,'',   138, 1, 1, 1, 1, 1.0362846, -90.835291, 1.1, 0.9, 1.1, 0.9
    44,'',   138, 1, 1, 1, 1, 1.0236044, -93.110906, 1.1, 0.9, 1.1, 0.9
    45,'',   138, 1, 1, 1, 1, 1.0235833, -93.113531, 1.1, 0.9, 1.1, 0.9
    46,'',   138, 1, 1, 1, 1, 1.0267404, -84.683633, 1.1, 0.9, 1.1, 0.9
    47,'',   138, 1, 1, 1, 1, 1.0265002, -84.712595, 1.1, 0.9, 1.1, 0.9
    48,'',   138, 1, 1, 1, 1, 1.0114983, -86.069928, 1.1, 0.9, 1.1, 0.9
    49,'',  13.8, 2, 1, 1, 1, 1.0132288, -86.010159, 1.1, 0.9, 1.1, 0.9
    50,'',  13.8, 2, 1, 1, 1, 1.0135085, -85.999257, 1.1, 0.9, 1.1, 0.9
    51,'',   138, 1, 1, 1, 1, 1.0114962, -86.070174, 1.1, 0.9, 1.1, 0.9
    52,'',   138, 1, 1, 1, 1, 1.0113742, -86.084699, 1.1, 0.9, 1.1, 0.9
    53,'',   138, 1, 1, 1, 1, 1.0209156, -95.414308, 1.1, 0.9, 1.1, 0.9
    54,'',   138, 1, 1, 1, 1, 1.0205899, -95.449459, 1.1, 0.9, 1.1, 0.9
    55,'',   138, 1, 1, 1, 1, 1.0303504, -85.546221, 1.1, 0.9, 1.1, 0.9
    56,'',   138, 1, 1, 1, 1, 1.0303385, -85.547577, 1.1, 0.9, 1.1, 0.9
    57,'',   345, 1, 1, 1, 1, 1.0286615, -80.970936, 1.1, 0.9, 1.1, 0.9
    58,'',   138, 1, 1, 1, 1, 1.0229999, -82.332527, 1.1, 0.9, 1.1, 0.9
    59,'',   138, 1, 1, 1, 1, 1.0219801, -82.459967, 1.1, 0.9, 1.1, 0.9
    60,'',   138, 1, 1, 1, 1, 1.0314764, -82.937698, 1.1, 0.9, 1.1, 0.9
    61,'',   138, 1, 1, 1, 1, 1.0314753, -82.937836, 1.1, 0.9, 1.1, 0.9
    62,'',   138, 1, 1, 1, 1, 1.0194067, -96.437953, 1.1, 0.9, 1.1, 0.9
    63,'',  13.8, 2, 1, 1, 1, 1.0194067, -96.437953, 1.1, 0.9, 1.1, 0.9
    64,'',   138, 1, 1, 1, 1, 1.0190726, -96.475837, 1.1, 0.9, 1.1, 0.9
    65,'',   345, 1, 1, 1, 1, 1.032708, -82.362848, 1.1, 0.9, 1.1, 0.9
    66,'',   138, 1, 1, 1, 1, 1.0324365, -83.731833, 1.1, 0.9, 1.1, 0.9
    67,'',   138, 1, 1, 1, 1, 1.032412, -83.734608, 1.1, 0.9, 1.1, 0.9
    68,'',   138, 1, 1, 1, 1, 1.0147039, -84.128069, 1.1, 0.9, 1.1, 0.9
    69,'',   138, 1, 1, 1, 1, 1.0145957, -84.141506, 1.1, 0.9, 1.1, 0.9
    70,'',   138, 1, 1, 1, 1, 1.0220718, -83.893297, 1.1, 0.9, 1.1, 0.9
    71,'',  13.8, 2, 1, 1, 1, 1.0227556, -83.868601, 1.1, 0.9, 1.1, 0.9
    72,'',  13.8, 2, 1, 1, 1, 1.0231762, -83.853114, 1.1, 0.9, 1.1, 0.9
    73,'',  13.8, 2, 1, 1, 1, 1.0235571, -83.842472, 1.1, 0.9, 1.1, 0.9
    74,'',   138, 1, 1, 1, 1, 1.0342057, -92.980271, 1.1, 0.9, 1.1, 0.9
    75,'',   138, 1, 1, 1, 1, 1.0341575, -92.986035, 1.1, 0.9, 1.1, 0.9
    76,'',   138, 1, 1, 1, 1, 0.99116163, -61.30997, 1.1, 0.9, 1.1, 0.9
    77,'',   138, 1, 1, 1, 1, 0.99111207, -61.315644, 1.1, 0.9, 1.1, 0.9
    78,'',   138, 1, 1, 1, 1, 1.0266847, -79.797844, 1.1, 0.9, 1.1, 0.9
    79,'',   138, 1, 1, 1, 1, 1.0266821, -79.798154, 1.1, 0.9, 1.1, 0.9
    80,'',   345, 1, 1, 1, 1, 1.0409477, -90.164187, 1.1, 0.9, 1.1, 0.9
    81,'',   138, 1, 1, 1, 1, 1.0369604, -90.387347, 1.1, 0.9, 1.1, 0.9
    82,'',  13.8, 2, 1, 1, 1, 1.04, -88.608326, 1.1, 0.9, 1.1, 0.9
    83,'',   138, 1, 1, 1, 1, 1.0270684, -90.248722, 1.1, 0.9, 1.1, 0.9
    84,'',   138, 1, 1, 1, 1, 1.0267258, -90.290001, 1.1, 0.9, 1.1, 0.9
    85,'',   138, 1, 1, 1, 1, 1.0338217, -92.640796, 1.1, 0.9, 1.1, 0.9
    86,'',   138, 1, 1, 1, 1, 1.0337194, -92.653275, 1.1, 0.9, 1.1, 0.9
    87,'',   138, 1, 1, 1, 1, 1.002775, -58.747974, 1.1, 0.9, 1.1, 0.9
    88,'',   138, 1, 1, 1, 1, 1.0027381, -58.752532, 1.1, 0.9, 1.1, 0.9
    89,'',   138, 1, 1, 1, 1, 1.0244999, -95.165033, 1.1, 0.9, 1.1, 0.9
    90,'',   138, 1, 1, 1, 1, 1.0244417, -95.172668, 1.1, 0.9, 1.1, 0.9
    91,'',   138, 1, 1, 1, 1, 1.0287991, -79.244146, 1.1, 0.9, 1.1, 0.9
    92,'',   138, 1, 1, 1, 1, 1.0283319, -79.302762, 1.1, 0.9, 1.1, 0.9
    93,'',   138, 1, 1, 1, 1, 0.97822893, -76.354606, 1.1, 0.9, 1.1, 0.9
    94,'',   138, 1, 1, 1, 1, 0.97818094, -76.360854, 1.1, 0.9, 1.1, 0.9
    95,'',   138, 1, 1, 1, 1, 1.0295805, -79.30825, 1.1, 0.9, 1.1, 0.9
    96,'',   138, 1, 1, 1, 1, 1.0293535, -79.335652, 1.1, 0.9, 1.1, 0.9
    97,'',   138, 1, 1, 1, 1, 1.006456, -85.38867, 1.1, 0.9, 1.1, 0.9
    98,'',   138, 1, 1, 1, 1, 1.0061668, -85.427326, 1.1, 0.9, 1.1, 0.9
    99,'',   138, 1, 1, 1, 1, 1.0308658, -83.184049, 1.1, 0.9, 1.1, 0.9
   100,'',   138, 1, 1, 1, 1, 1.030787, -83.193416, 1.1, 0.9, 1.1, 0.9
   101,'',   138, 1, 1, 1, 1, 1.0308607, -83.184605, 1.1, 0.9, 1.1, 0.9
   102,'',   138, 1, 1, 1, 1, 1.0168954, -87.009934, 1.1, 0.9, 1.1, 0.9
   103,'',   138, 1, 1, 1, 1, 1.0166721, -87.038257, 1.1, 0.9, 1.1, 0.9
   104,'',   138, 1, 1, 1, 1, 1.031738, -92.714513, 1.1, 0.9, 1.1, 0.9
   105,'',   138, 1, 1, 1, 1, 1.031275, -92.769361, 1.1, 0.9, 1.1, 0.9
   106,'',   138, 1, 1, 1, 1, 1.0345483, -92.108662, 1.1, 0.9, 1.1, 0.9
   107,'',   138, 1, 1, 1, 1, 1.0344698, -92.11795, 1.1, 0.9, 1.1, 0.9
   108,'',   138, 1, 1, 1, 1, 1.0290463, -83.400668, 1.1, 0.9, 1.1, 0.9
   109,'',   138, 1, 1, 1, 1, 1.0287945, -83.427865, 1.1, 0.9, 1.1, 0.9
   110,'',   138, 1, 1, 1, 1, 0.98366096, -61.498057, 1.1, 0.9, 1.1, 0.9
   111,'',   138, 1, 1, 1, 1, 0.9833028, -61.547112, 1.1, 0.9, 1.1, 0.9
   112,'',   138, 1, 1, 1, 1, 1.0271218, -92.875863, 1.1, 0.9, 1.1, 0.9
   113,'',   138, 1, 1, 1, 1, 1.026887, -92.902003, 1.1, 0.9, 1.1, 0.9
   114,'',   138, 1, 1, 1, 1, 1.0344447, -92.251917, 1.1, 0.9, 1.1, 0.9
   115,'',   138, 1, 1, 1, 1, 1.0344204, -92.25502, 1.1, 0.9, 1.1, 0.9
   116,'',   138, 1, 1, 1, 1, 1.0344297, -92.253846, 1.1, 0.9, 1.1, 0.9
   117,'',   138, 1, 1, 1, 1, 1.0260964, -83.721544, 1.1, 0.9, 1.1, 0.9
   118,'',   138, 1, 1, 1, 1, 1.0260456, -83.727826, 1.1, 0.9, 1.1, 0.9
   119,'',   138, 1, 1, 1, 1, 1.0157398, -83.868387, 1.1, 0.9, 1.1, 0.9
   120,'',   138, 1, 1, 1, 1, 1.0155482, -83.89131, 1.1, 0.9, 1.1, 0.9
   121,'',   138, 1, 1, 1, 1, 1.0184492, -96.138393, 1.1, 0.9, 1.1, 0.9
   122,'',   138, 1, 1, 1, 1, 1.0179201, -96.207947, 1.1, 0.9, 1.1, 0.9
   123,'',   345, 1, 1, 1, 1, 1.0379078, -78.205787, 1.1, 0.9, 1.1, 0.9
   124,'',   138, 1, 1, 1, 1, 1.0367453, -78.472462, 1.1, 0.9, 1.1, 0.9
   125,'',  13.8, 2, 1, 1, 1, 1.04, -77.29519, 1.1, 0.9, 1.1, 0.9
   126,'',  13.8, 2, 1, 1, 1, 1.04, -77.715676, 1.1, 0.9, 1.1, 0.9
   127,'',  13.8, 2, 1, 1, 1, 1.04, -77.132036, 1.1, 0.9, 1.1, 0.9
   128,'',  13.8, 2, 1, 1, 1, 1.04, -77.851486, 1.1, 0.9, 1.1, 0.9
   129,'',   138, 1, 1, 1, 1, 1.0146227, -84.003678, 1.1, 0.9, 1.1, 0.9
   130,'',   138, 1, 1, 1, 1, 1.0139115, -84.081857, 1.1, 0.9, 1.1, 0.9
   131,'',   138, 1, 1, 1, 1, 1.0311851, -82.863553, 1.1, 0.9, 1.1, 0.9
   132,'',   138, 1, 1, 1, 1, 1.0310359, -82.880943, 1.1, 0.9, 1.1, 0.9
   133,'',   138, 1, 1, 1, 1, 1.0299162, -79.249047, 1.1, 0.9, 1.1, 0.9
   134,'',   138, 1, 1, 1, 1, 1.02965, -79.281645, 1.1, 0.9, 1.1, 0.9
   135,'',   138, 1, 1, 1, 1, 1.0221081, -95.537817, 1.1, 0.9, 1.1, 0.9
   136,'',   138, 1, 1, 1, 1, 1.0218534, -95.570707, 1.1, 0.9, 1.1, 0.9
   137,'',   138, 1, 1, 1, 1, 1.0275803, -84.309532, 1.1, 0.9, 1.1, 0.9
   138,'',   138, 1, 1, 1, 1, 1.027154, -84.364735, 1.1, 0.9, 1.1, 0.9
   139,'',   138, 1, 1, 1, 1, 1.0308175, -83.129109, 1.1, 0.9, 1.1, 0.9
   140,'',   138, 1, 1, 1, 1, 1.0308162, -83.129263, 1.1, 0.9, 1.1, 0.9
   141,'',   138, 1, 1, 1, 1, 0.99986678, -62.865192, 1.1, 0.9, 1.1, 0.9
   142,'',   138, 1, 1, 1, 1, 0.99870871, -62.999173, 1.1, 0.9, 1.1, 0.9
   143,'',   138, 1, 1, 1, 1, 1.0188684, -52.735615, 1.1, 0.9, 1.1, 0.9
   144,'',  13.8, 2, 1, 1, 1, 1.04, -47.393949, 1.1, 0.9, 1.1, 0.9
   145,'',  13.8, 2, 1, 1, 1, 1.04, -47.281761, 1.1, 0.9, 1.1, 0.9
   146,'',   345, 1, 1, 1, 1, 1.0287102, -90.603417, 1.1, 0.9, 1.1, 0.9
   147,'',   138, 1, 1, 1, 1, 0.99504562, -86.55556, 1.1, 0.9, 1.1, 0.9
   148,'',   138, 1, 1, 1, 1, 0.99444005, -86.635636, 1.1, 0.9, 1.1, 0.9
   149,'',   138, 1, 1, 1, 1, 1.0342856, -89.997347, 1.1, 0.9, 1.1, 0.9
   150,'',   138, 1, 1, 1, 1, 1.034277, -89.998351, 1.1, 0.9, 1.1, 0.9
   151,'',   345, 1, 1, 1, 1, 1.035159, -82.750933, 1.1, 0.9, 1.1, 0.9
   152,'',   138, 1, 1, 1, 1, 1.035, -83.647636, 1.1, 0.9, 1.1, 0.9
   153,'',   138, 1, 1, 1, 1, 1.0345434, -83.702825, 1.1, 0.9, 1.1, 0.9
   154,'',   138, 1, 1, 1, 1, 1.0290631, -83.584405, 1.1, 0.9, 1.1, 0.9
   155,'',   138, 1, 1, 1, 1, 1.0287399, -83.623001, 1.1, 0.9, 1.1, 0.9
   156,'',   138, 1, 1, 1, 1, 1.020513, -85.243801, 1.1, 0.9, 1.1, 0.9
   157,'',   138, 1, 1, 1, 1, 1.0197929, -85.332739, 1.1, 0.9, 1.1, 0.9
   158,'',   138, 1, 1, 1, 1, 1.018705, -95.62758, 1.1, 0.9, 1.1, 0.9
   159,'',   138, 1, 1, 1, 1, 1.0184711, -95.657457, 1.1, 0.9, 1.1, 0.9
   160,'',   138, 1, 1, 1, 1, 1.0358407, -91.9507, 1.1, 0.9, 1.1, 0.9
   161,'',   138, 1, 1, 1, 1, 1.0357066, -91.967526, 1.1, 0.9, 1.1, 0.9
   162,'',   345, 1, 1, 1, 1, 1.0294397, -90.652225, 1.1, 0.9, 1.1, 0.9
   163,'',   138, 1, 1, 1, 1, 1.0273752, -91.351359, 1.1, 0.9, 1.1, 0.9
   164,'',   138, 1, 1, 1, 1, 1.0263278, -91.481069, 1.1, 0.9, 1.1, 0.9
   165,'',   345, 1, 1, 1, 1, 1.0374908, -78.071901, 1.1, 0.9, 1.1, 0.9
   166,'',   138, 1, 1, 1, 1, 1.0352028, -78.855587, 1.1, 0.9, 1.1, 0.9
   167,'',  13.8, 2, 1, 1, 1, 1.04, -77.496673, 1.1, 0.9, 1.1, 0.9
   168,'',  13.8, 2, 1, 1, 1, 1.04, -77.122002, 1.1, 0.9, 1.1, 0.9
   169,'',  13.8, 2, 1, 1, 1, 1.04, -76.702739, 1.1, 0.9, 1.1, 0.9
   170,'',   138, 1, 1, 1, 1, 1.0295497, -79.366774, 1.1, 0.9, 1.1, 0.9
   171,'',   138, 1, 1, 1, 1, 1.029462, -79.378464, 1.1, 0.9, 1.1, 0.9
   172,'',   138, 1, 1, 1, 1, 1.0238836, -83.59566, 1.1, 0.9, 1.1, 0.9
   173,'',   138, 1, 1, 1, 1, 1.0238672, -83.597456, 1.1, 0.9, 1.1, 0.9
   174,'',   138, 1, 1, 1, 1, 1.0238482, -83.599745, 1.1, 0.9, 1.1, 0.9
   175,'',   345, 1, 1, 1, 1, 0.98600071, -65.304087, 1.1, 0.9, 1.1, 0.9
   176,'',   138, 1, 1, 1, 1, 0.98600071, -65.304087, 1.1, 0.9, 1.1, 0.9
   177,'',   138, 1, 1, 1, 1, 0.9859397, -65.312195, 1.1, 0.9, 1.1, 0.9
   178,'',   138, 1, 1, 1, 1, 0.98595352, -65.30943, 1.1, 0.9, 1.1, 0.9
   179,'',   138, 1, 1, 1, 1, 1.0145912, -96.57272, 1.1, 0.9, 1.1, 0.9
   180,'',   138, 1, 1, 1, 1, 1.0144512, -96.588361, 1.1, 0.9, 1.1, 0.9
   181,'',   138, 1, 1, 1, 1, 1.0055188, -85.107459, 1.1, 0.9, 1.1, 0.9
   182,'',   138, 1, 1, 1, 1, 1.0048773, -85.187281, 1.1, 0.9, 1.1, 0.9
   183,'',   138, 1, 1, 1, 1, 0.98281546, -62.574517, 1.1, 0.9, 1.1, 0.9
   184,'',   138, 1, 1, 1, 1, 0.98263064, -62.597464, 1.1, 0.9, 1.1, 0.9
   185,'',   138, 1, 1, 1, 1, 1.0237324, -79.967455, 1.1, 0.9, 1.1, 0.9
   186,'',   138, 1, 1, 1, 1, 1.0234386, -80.002191, 1.1, 0.9, 1.1, 0.9
   187,'',   138, 1, 1, 1, 1, 1.0238801, -95.252741, 1.1, 0.9, 1.1, 0.9
   188,'',   138, 1, 1, 1, 1, 1.0237763, -95.264163, 1.1, 0.9, 1.1, 0.9
   189,'',   138, 1, 1, 1, 1, 1.0338869, -92.932539, 1.1, 0.9, 1.1, 0.9
   190,'',   138, 1, 1, 1, 1, 1.0338148, -92.940107, 1.1, 0.9, 1.1, 0.9
   191,'',   138, 1, 1, 1, 1, 1.034309, -91.984079, 1.1, 0.9, 1.1, 0.9
   192,'',   138, 1, 1, 1, 1, 1.0342137, -91.995274, 1.1, 0.9, 1.1, 0.9
   193,'',   138, 1, 1, 1, 1, 1.0288198, -92.835924, 1.1, 0.9, 1.1, 0.9
   194,'',   138, 1, 1, 1, 1, 1.0286504, -92.855868, 1.1, 0.9, 1.1, 0.9
   195,'',   345, 1, 1, 1, 1, 1.0300889, -90.86335, 1.1, 0.9, 1.1, 0.9
   196,'',   138, 1, 1, 1, 1, 1.025585, -91.99572, 1.1, 0.9, 1.1, 0.9
   197,'',  13.8, 2, 1, 1, 1, 1.04, -89.326217, 1.1, 0.9, 1.1, 0.9
   198,'',  13.8, 2, 1, 1, 1, 1.04, -90.10332, 1.1, 0.9, 1.1, 0.9
   199,'',   138, 1, 1, 1, 1, 1.0247361, -92.089649, 1.1, 0.9, 1.1, 0.9
   200,'',   138, 1, 1, 1, 1, 1.0248277, -92.455702, 1.1, 0.9, 1.1, 0.9
...
0 / END OF BUS DATA, BEGIN LOAD DATA
2, '1', 1, 1, 1, 27.292, 7.278, 0, 0, 0, 0, 1, 1, 0
4, '1', 1, 1, 1, 84.608, 22.562, 0, 0, 0, 0, 1, 1, 0
6, '1', 1, 1, 1, 1.438, 0.383, 0, 0, 0, 0, 1, 1, 0
11, '1', 1, 1, 1, 0.878, 0.234, 0, 0, 0, 0, 1, 1, 0
13, '1', 1, 1, 1, 16.648, 4.439, 0, 0, 0, 0, 1, 1, 0
20, '1', 1, 1, 1, 1.612, 0.43, 0, 0, 0, 0, 1, 1, 0
22, '1', 1, 1, 1, 94.818, 25.285, 0, 0, 0, 0, 1, 1, 0
25, '1', 1, 1, 1, 0.851, 0.227, 0, 0, 0, 0, 1, 1, 0
26, '1', 1, 1, 1, 8.072, 2.153, 0, 0, 0, 0, 1, 1, 0
28, '1', 1, 1, 1, 23.451, 6.254, 0, 0, 0, 0, 1, 1, 0
30, '1', 1, 1, 1, 63.747, 16.999, 0, 0, 0, 0, 1, 1, 0
32, '1', 1, 1, 1, 3.466, 0.924, 0, 0, 0, 0, 1, 1, 0
34, '1', 1, 1, 1, 8.874, 2.366, 0, 0, 0, 0, 1, 1, 0
36, '1', 1, 1, 1, 15.389, 4.104, 0, 0, 0, 0, 1, 1, 0
38, '1', 1, 1, 1, 0.058, 0.015, 0, 0, 0, 0, 1, 1, 0
41, '1', 1, 1, 1, 21.609, 5.763, 0, 0, 0, 0, 1, 1, 0
43, '1', 1, 1, 1, 1.584, 0.422, 0, 0, 0, 0, 1, 1, 0
45, '1', 1, 1, 1, 1.295, 0.345, 0, 0, 0, 0, 1, 1, 0
47, '1', 1, 1, 1, 16.176, 4.314, 0, 0, 0, 0, 1, 1, 0
51, '1', 1, 1, 1, 0.126, 0.034, 0, 0, 0, 0, 1, 1, 0
52, '1', 1, 1, 1, 8.302, 2.214, 0, 0, 0, 0, 1, 1, 0
54, '1', 1, 1, 1, 22.196, 5.919, 0, 0, 0, 0, 1, 1, 0
56, '1', 1, 1, 1, 0.8, 0.213, 0, 0, 0, 0, 1, 1, 0
59, '1', 1, 1, 1, 63.139, 16.837, 0, 0, 0, 0, 1, 1, 0
61, '1', 1, 1, 1, 0.076, 0.02, 0, 0, 0, 0, 1, 1, 0
64, '1', 1, 1, 1, 22.175, 5.913, 0, 0, 0, 0, 1, 1, 0
67, '1', 1, 1, 1, 1.622, 0.433, 0, 0, 0, 0, 1, 1, 0
69, '1', 1, 1, 1, 6.321, 1.686, 0, 0, 0, 0, 1, 1, 0
75, '1', 1, 1, 1, 3.38, 0.901, 0, 0, 0, 0, 1, 1, 0
77, '1', 1, 1, 1, 3.111, 0.83, 0, 0, 0, 0, 1, 1, 0
79, '1', 1, 1, 1, 0.183, 0.049, 0, 0, 0, 0, 1, 1, 0
84, '1', 1, 1, 1, 21.799, 5.813, 0, 0, 0, 0, 1, 1, 0
86, '1', 1, 1, 1, 6.245, 1.665, 0, 0, 0, 0, 1, 1, 0
88, '1', 1, 1, 1, 2.351, 0.627, 0, 0, 0, 0, 1, 1, 0
90, '1', 1, 1, 1, 3.763, 1.003, 0, 0, 0, 0, 1, 1, 0
92, '1', 1, 1, 1, 31.238, 8.33, 0, 0, 0, 0, 1, 1, 0
94, '1', 1, 1, 1, 3.325, 0.887, 0, 0, 0, 0, 1, 1, 0
96, '1', 1, 1, 1, 16.332, 4.355, 0, 0, 0, 0, 1, 1, 0
98, '1', 1, 1, 1, 17.818, 4.751, 0, 0, 0, 0, 1, 1, 0
100, '1', 1, 1, 1, 5.038, 1.344, 0, 0, 0, 0, 1, 1, 0
101, '1', 1, 1, 1, 0.332, 0.089, 0, 0, 0, 0, 1, 1, 0
103, '1', 1, 1, 1, 13.774, 3.673, 0, 0, 0, 0, 1, 1, 0
105, '1', 1, 1, 1, 28.518, 7.605, 0, 0, 0, 0, 1, 1, 0
107, '1', 1, 1, 1, 5.682, 1.515, 0, 0, 0, 0, 1, 1, 0
109, '1', 1, 1, 1, 17.731, 4.728, 0, 0, 0, 0, 1, 1, 0
111, '1', 1, 1, 1, 23.211, 6.19, 0, 0, 0, 0, 1, 1, 0
113, '1', 1, 1, 1, 16.326, 4.354, 0, 0, 0, 0, 1, 1, 0
115, '1', 1, 1, 1, 1.797, 0.479, 0, 0, 0, 0, 1, 1, 0
116, '1', 1, 1, 1, 1.1, 0.293, 0, 0, 0, 0, 1, 1, 0
118, '1', 1, 1, 1, 3.135, 0.836, 0, 0, 0, 0, 1, 1, 0
120, '1', 1, 1, 1, 14.179, 3.781, 0, 0, 0, 0, 1, 1, 0
122, '1', 1, 1, 1, 34.028, 9.074, 0, 0, 0, 0, 1, 1, 0
130, '1', 1, 1, 1, 46.252, 12.334, 0, 0, 0, 0, 1, 1, 0
132, '1', 1, 1, 1, 9.392, 2.504, 0, 0, 0, 0, 1, 1, 0
134, '1', 1, 1, 1, 20.485, 5.463, 0, 0, 0, 0, 1, 1, 0
136, '1', 1, 1, 1, 17.062, 4.55, 0, 0, 0, 0, 1, 1, 0
138, '1', 1, 1, 1, 27.939, 7.45, 0, 0, 0, 0, 1, 1, 0
140, '1', 1, 1, 1, 0.095, 0.025, 0, 0, 0, 0, 1, 1, 0
142, '1', 1, 1, 1, 72.213, 19.257, 0, 0, 0, 0, 1, 1, 0
148, '1', 1, 1, 1, 36.614, 9.764, 0, 0, 0, 0, 1, 1, 0
150, '1', 1, 1, 1, 0.534, 0.142, 0, 0, 0, 0, 1, 1, 0
153, '1', 1, 1, 1, 34.712, 9.257, 0, 0, 0, 0, 1, 1, 0
155, '1', 1, 1, 1, 24.908, 6.642, 0, 0, 0, 0, 1, 1, 0
157, '1', 1, 1, 1, 47.242, 12.598, 0, 0, 0, 0, 1, 1, 0
159, '1', 1, 1, 1, 14.571, 3.886, 0, 0, 0, 0, 1, 1, 0
161, '1', 1, 1, 1, 9.213, 2.457, 0, 0, 0, 0, 1, 1, 0
164, '1', 1, 1, 1, 62.586, 16.69, 0, 0, 0, 0, 1, 1, 0
171, '1', 1, 1, 1, 5.945, 1.585, 0, 0, 0, 0, 1, 1, 0
173, '1', 1, 1, 1, 1.113, 0.297, 0, 0, 0, 0, 1, 1, 0
174, '1', 1, 1, 1, 2.593, 0.692, 0, 0, 0, 0, 1, 1, 0
177, '1', 1, 1, 1, 3.93, 1.048, 0, 0, 0, 0, 1, 1, 0
178, '1', 1, 1, 1, 3.049, 0.813, 0, 0, 0, 0, 1, 1, 0
180, '1', 1, 1, 1, 9.014, 2.404, 0, 0, 0, 0, 1, 1, 0
182, '1', 1, 1, 1, 39.686, 10.583, 0, 0, 0, 0, 1, 1, 0
184, '1', 1, 1, 1, 13.506, 3.602, 0, 0, 0, 0, 1, 1, 0
186, '1', 1, 1, 1, 21.784, 5.809, 0, 0, 0, 0, 1, 1, 0
188, '1', 1, 1, 1, 7.045, 1.879, 0, 0, 0, 0, 1, 1, 0
190, '1', 1, 1, 1, 4.995, 1.332, 0, 0, 0, 0, 1, 1, 0
192, '1', 1, 1, 1, 5.836, 1.556, 0, 0, 0, 0, 1, 1, 0
194, '1', 1, 1, 1, 10.186, 2.716, 0, 0, 0, 0, 1, 1, 0
199, '1', 1, 1, 1, 55.089, 14.69, 0, 0, 0, 0, 1, 1, 0
201, '1', 1, 1, 1, 5.668, 1.511, 0, 0, 0, 0, 1, 1, 0
203, '1', 1, 1, 1, 1.665, 0.444, 0, 0, 0, 0, 1, 1, 0
204, '1', 1, 1, 1, 16.211, 4.323, 0, 0, 0, 0, 1, 1, 0
206, '1', 1, 1, 1, 1.068, 0.285, 0, 0, 0, 0, 1, 1, 0
207, '1', 1, 1, 1, 8.013, 2.137, 0, 0, 0, 0, 1, 1, 0
209, '1', 1, 1, 1, 36.67, 9.779, 0, 0, 0, 0, 1, 1, 0
211, '1', 1, 1, 1, 12.773, 3.406, 0, 0, 0, 0, 1, 1, 0
213, '1', 1, 1, 1, 34.605, 9.228, 0, 0, 0, 0, 1, 1, 0
215, '1', 1, 1, 1, 29.988, 7.997, 0, 0, 0, 0, 1, 1, 0
217, '1', 1, 1, 1, 24.685, 6.583, 0, 0, 0, 0, 1, 1, 0
219, '1', 1, 1, 1, 0.118, 0.032, 0, 0, 0, 0, 1, 1, 0
227, '1', 1, 1, 1, 2.606, 0.695, 0, 0, 0, 0, 1, 1, 0
229, '1', 1, 1, 1, 25.984, 6.929, 0, 0, 0, 0, 1, 1, 0
234, '1', 1, 1, 1, 38.236, 10.196, 0, 0, 0, 0, 1, 1, 0
237, '1', 1, 1, 1, 0.963, 0.257, 0, 0, 0, 0, 1, 1, 0
239, '1', 1, 1, 1, 14.582, 3.889, 0, 0, 0, 0, 1, 1, 0
241, '1', 1, 1, 1, 7.007, 1.869, 0, 0, 0, 0, 1, 1, 0
243, '1', 1, 1, 1, 47.483, 12.662, 0, 0, 0, 0, 1, 1, 0
245, '1', 1, 1, 1, 4.201, 1.12, 0, 0, 0, 0, 1, 1, 0
252, '1', 1, 1, 1, 53.169, 14.178, 0, 0, 0, 0, 1, 1, 0
259, '1', 1, 1, 1, 3.656, 0.975, 0, 0, 0, 0, 1, 1, 0
261, '1', 1, 1, 1, 8.975, 2.393, 0, 0, 0, 0, 1, 1, 0
266, '1', 1, 1, 1, 39.395, 10.505, 0, 0, 0, 0, 1, 1, 0
268, '1', 1, 1, 1, 41.586, 11.09, 0, 0, 0, 0, 1, 1, 0
270, '1', 1, 1, 1, 2.414, 0.644, 0, 0, 0, 0, 1, 1, 0
273, '1', 1, 1, 1, 3.37, 0.899, 0, 0, 0, 0, 1, 1, 0
277, '1', 1, 1, 1, 0.258, 0.069, 0, 0, 0, 0, 1, 1, 0
278, '1', 1, 1, 1, 3.679, 0.981, 0, 0, 0, 0, 1, 1, 0
280, '1', 1, 1, 1, 7.591, 2.024, 0, 0, 0, 0, 1, 1, 0
282, '1', 1, 1, 1, 56.35, 15.027, 0, 0, 0, 0, 1, 1, 0
284, '1', 1, 1, 1, 11.59, 3.091, 0, 0, 0, 0, 1, 1, 0
286, '1', 1, 1, 1, 3.972, 1.059, 0, 0, 0, 0, 1, 1, 0
288, '1', 1, 1, 1, 37.052, 9.881, 0, 0, 0, 0, 1, 1, 0
290, '1', 1, 1, 1, 1.773, 0.473, 0, 0, 0, 0, 1, 1, 0
292, '1', 1, 1, 1, 4.857, 1.295, 0, 0, 0, 0, 1, 1, 0
294, '1', 1, 1, 1, 9.089, 2.424, 0, 0, 0, 0, 1, 1, 0
296, '1', 1, 1, 1, 2.902, 0.774, 0, 0, 0, 0, 1, 1, 0
299, '1', 1, 1, 1, 5.171, 1.379, 0, 0, 0, 0, 1, 1, 0
303, '1', 1, 1, 1, 38.83, 10.355, 0, 0, 0, 0, 1, 1, 0
307, '1', 1, 1, 1, 34.067, 9.085, 0, 0, 0, 0, 1, 1, 0
309, '1', 1, 1, 1, 3.206, 0.855, 0, 0, 0, 0, 1, 1, 0
311, '1', 1, 1, 1, 21.055, 5.615, 0, 0, 0, 0, 1, 1, 0
313, '1', 1, 1, 1, 4.415, 1.177, 0, 0, 0, 0, 1, 1, 0
315, '1', 1, 1, 1, 0.159, 0.042, 0, 0, 0, 0, 1, 1, 0
317, '1', 1, 1, 1, 1.68, 0.448, 0, 0, 0, 0, 1, 1, 0
321, '1', 1, 1, 1, 95.917, 25.578, 0, 0, 0, 0, 1, 1, 0
323, '1', 1, 1, 1, 20.281, 5.408, 0, 0, 0, 0, 1, 1, 0
325, '1', 1, 1, 1, 46.35, 12.36, 0, 0, 0, 0, 1, 1, 0
327, '1', 1, 1, 1, 77.199, 20.587, 0, 0, 0, 0, 1, 1, 0
329, '1', 1, 1, 1, 12.499, 3.333, 0, 0, 0, 0, 1, 1, 0
331, '1', 1, 1, 1, 21.305, 5.681, 0, 0, 0, 0, 1, 1, 0
334, '1', 1, 1, 1, 0.187, 0.05, 0, 0, 0, 0, 1, 1, 0
335, '1', 1, 1, 1, 0.311, 0.083, 0, 0, 0, 0, 1, 1, 0
337, '1', 1, 1, 1, 2.539, 0.677, 0, 0, 0, 0, 1, 1, 0
339, '1', 1, 1, 1, 33.615, 8.964, 0, 0, 0, 0, 1, 1, 0
341, '1', 1, 1, 1, 10.851, 2.894, 0, 0, 0, 0, 1, 1, 0
343, '1', 1, 1, 1, 0.891, 0.238, 0, 0, 0, 0, 1, 1, 0
344, '1', 1, 1, 1, 0.863, 0.23, 0, 0, 0, 0, 1, 1, 0
346, '1', 1, 1, 1, 30.341, 8.091, 0, 0, 0, 0, 1, 1, 0
348, '1', 1, 1, 1, 38.705, 10.321, 0, 0, 0, 0, 1, 1, 0
355, '1', 1, 1, 1, 12.731, 3.395, 0, 0, 0, 0, 1, 1, 0
357, '1', 1, 1, 1, 24.969, 6.658, 0, 0, 0, 0, 1, 1, 0
359, '1', 1, 1, 1, 5.178, 1.381, 0, 0, 0, 0, 1, 1, 0
364, '1', 1, 1, 1, 11.342, 3.025, 0, 0, 0, 0, 1, 1, 0
366, '1', 1, 1, 1, 36.021, 9.606, 0, 0, 0, 0, 1, 1, 0
368, '1', 1, 1, 1, 5.502, 1.467, 0, 0, 0, 0, 1, 1, 0
370, '1', 1, 1, 1, 17.103, 4.561, 0, 0, 0, 0, 1, 1, 0
373, '1', 1, 1, 1, 18.387, 4.903, 0, 0, 0, 0, 1, 1, 0
375, '1', 1, 1, 1, 15.791, 4.211, 0, 0, 0, 0, 1, 1, 0
377, '1', 1, 1, 1, 33.682, 8.982, 0, 0, 0, 0, 1, 1, 0
379, '1', 1, 1, 1, 5.823, 1.553, 0, 0, 0, 0, 1, 1, 0
381, '1', 1, 1, 1, 3.775, 1.007, 0, 0, 0, 0, 1, 1, 0
383, '1', 1, 1, 1, 11.159, 2.976, 0, 0, 0, 0, 1, 1, 0
385, '1', 1, 1, 1, 16.406, 4.375, 0, 0, 0, 0, 1, 1, 0
397, '1', 1, 1, 1, 19.193, 5.118, 0, 0, 0, 0, 1, 1, 0
398, '1', 1, 1, 1, 8.054, 2.148, 0, 0, 0, 0, 1, 1, 0
400, '1', 1, 1, 1, 8.174, 2.18, 0, 0, 0, 0, 1, 1, 0
402, '1', 1, 1, 1, 39.542, 10.544, 0, 0, 0, 0, 1, 1, 0
404, '1', 1, 1, 1, 7.018, 1.871, 0, 0, 0, 0, 1, 1, 0
406, '1', 1, 1, 1, 2.35, 0.627, 0, 0, 0, 0, 1, 1, 0
416, '1', 1, 1, 1, 3.866, 1.031, 0, 0, 0, 0, 1, 1, 0
418, '1', 1, 1, 1, 28.499, 7.6, 0, 0, 0, 0, 1, 1, 0
420, '1', 1, 1, 1, 1.855, 0.495, 0, 0, 0, 0, 1, 1, 0
422, '1', 1, 1, 1, 31.359, 8.362, 0, 0, 0, 0, 1, 1, 0
424, '1', 1, 1, 1, 70.312, 18.75, 0, 0, 0, 0, 1, 1, 0
427, '1', 1, 1, 1, 5.124, 1.366, 0, 0, 0, 0, 1, 1, 0
446, '1', 1, 1, 1, 39.73, 10.594, 0, 0, 0, 0, 1, 1, 0
448, '1', 1, 1, 1, 21.448, 5.72, 0, 0, 0, 0, 1, 1, 0
450, '1', 1, 1, 1, 0.418, 0.111, 0, 0, 0, 0, 1, 1, 0
451, '1', 1, 1, 1, 0.824, 0.22, 0, 0, 0, 0, 1, 1, 0
452, '1', 1, 1, 1, 4.996, 1.332, 0, 0, 0, 0, 1, 1, 0
459, '1', 1, 1, 1, 33.33, 8.888, 0, 0, 0, 0, 1, 1, 0
460, '1', 1, 1, 1, 9.816, 2.618, 0, 0, 0, 0, 1, 1, 0
461, '1', 1, 1, 1, 41.091, 10.958, 0, 0, 0, 0, 1, 1, 0
465, '1', 1, 1, 1, 4.666, 1.244, 0, 0, 0, 0, 1, 1, 0
466, '1', 1, 1, 1, 16.149, 4.307, 0, 0, 0, 0, 1, 1, 0
467, '1', 1, 1, 1, 0.388, 0.103, 0, 0, 0, 0, 1, 1, 0
468, '1', 1, 1, 1, 1.807, 0.482, 0, 0, 0, 0, 1, 1, 0
469, '1', 1, 1, 1, 57.581, 15.355, 0, 0, 0, 0, 1, 1, 0
470, '1', 1, 1, 1, 20.444, 5.452, 0, 0, 0, 0, 1, 1, 0
472, '1', 1, 1, 1, 18.525, 4.94, 0, 0, 0, 0, 1, 1, 0
473, '1', 1, 1, 1, 0.48, 0.128, 0, 0, 0, 0, 1, 1, 0
474, '1', 1, 1, 1, 74.915, 19.976, 0, 0, 0, 0, 1, 1, 0
475, '1', 1, 1, 1, 0.103, 0.028, 0, 0, 0, 0, 1, 1, 0
476, '1', 1, 1, 1, 38.167, 10.178, 0, 0, 0, 0, 1, 1, 0
477, '1', 1, 1, 1, 11.675, 3.114, 0, 0, 0, 0, 1, 1, 0
478, '1', 1, 1, 1, 4.098, 1.093, 0, 0, 0, 0, 1, 1, 0
485, '1', 1, 1, 1, 17.777, 4.741, 0, 0, 0, 0, 1, 1, 0
486, '1', 1, 1, 1, 43.702, 11.654, 0, 0, 0, 0, 1, 1, 0
487, '1', 1, 1, 1, 5.605, 1.495, 0, 0, 0, 0, 1, 1, 0
488, '1', 1, 1, 1, 43.857, 11.695, 0, 0, 0, 0, 1, 1, 0
489, '1', 1, 1, 1, 1.307, 0.349, 0, 0, 0, 0, 1, 1, 0
490, '1', 1, 1, 1, 14.32, 3.819, 0, 0, 0, 0, 1, 1, 0
491, '1', 1, 1, 1, 76.218, 20.325, 0, 0, 0, 0, 1, 1, 0
492, '1', 1, 1, 1, 26.649, 7.106, 0, 0, 0, 0, 1, 1, 0
493, '1', 1, 1, 1, 1.811, 0.483, 0, 0, 0, 0, 1, 1, 0
495, '1', 1, 1, 1, 28.013, 7.47, 0, 0, 0, 0, 1, 1, 0
499, '1', 1, 1, 1, 78.001, 20.8, 0, 0, 0, 0, 1, 1, 0
500, '1', 1, 1, 1, 8.318, 2.218, 0, 0, 0, 0, 1, 1, 0
0 / END OF LOAD DATA, BEGIN FIXED SHUNT DATA
0 / END OF FIXED SHUNT DATA, BEGIN GENERATOR DATA
9, '1', 243.92062, -94.16, 359.66, -94.16, 1.04, 0, 0, 0, 1.0, 0, 0, 1, 1, 1, 771.8, 231.54, 1, 1, 0, 1, 0, 1, 0, 1, 0, 1
16, '1', 0, 0, 163.56, -36.44, 1.0357246, 0, 0, 0, 1.0, 0, 0, 1, 0, 1, 444.45, 133.33, 1, 1, 0, 1, 0, 1, 0, 1, 0, 1
17, '1', 883.17313, -72.89, 327.12, -72.89, 1.04, 0, 0, 0, 1.0, 0, 0, 1, 1, 1, 888.9, 266.67, 1, 1, 0, 1, 0, 1, 0, 1, 0, 1
18, '1', 50.067408, -12.92, 58, -12.92, 1.04, 0, 0, 0, 1.0, 0, 0, 1, 1, 1, 157.6, 47.28, 1, 1, 0, 1, 0, 1, 0, 1, 0, 1
49, '1', 0.41299258, -0.16, 0.61, -0.16, 1.0141095, 0, 0, 0, 1.0, 0, 0, 1, 1, 1, 1.3, 0.39, 1, 1, 0, 1, 0, 1, 0, 1, 0, 1
50, '1', 0.82598515, -0.32, 1.21, -0.32, 1.0143887, 0, 0, 0, 1.0, 0, 0, 1, 1, 1, 2.6, 0.78, 1, 1, 0, 1, 0, 1, 0, 1, 0, 1
63, '1', 0, 0, 1.63, -0.36, 1.0201552, 0, 0, 0, 1.0, 0, 0, 1, 0, 1, 3.2, 0.96, 1, 1, 0, 1, 0, 1, 0, 1, 0, 1
71, '1', 1.043, -0.2, 1.54, -0.2, 1.0228179, 0, 0, 0, 1.0, 0, 0, 1, 1, 1, 1.043, 0, 1, 1, 0, 1, 0, 1, 0, 1, 0, 1
72, '1', 0.522, -0.1, 0.77, -0.1, 1.0232385, 0, 0, 0, 1.0, 0, 0, 1, 1, 1, 0.522, 0, 1, 1, 0, 1, 0, 1, 0, 1, 0, 1
73, '1', 0.365, -0.07, 0.54, -0.07, 1.0236193, 0, 0, 0, 1.0, 0, 0, 1, 1, 1, 0.365, 0, 1, 1, 0, 1, 0, 1, 0, 1, 0, 1
82, '1', 94.379, -17.73, 138.97, -17.73, 1.04, 0, 0, 0, 1.0, 0, 0, 1, 1, 1, 94.379, 0, 1, 1, 0, 1, 0, 1, 0, 1, 0, 1
125, '1', 42.248, -7.94, 62.21, -7.94, 1.04, 0, 0, 0, 1.0, 0, 0, 1, 1, 1, 42.248, 0, 1, 1, 0, 1, 0, 1, 0, 1, 0, 1
126, '1', 42.248, -7.94, 62.21, -7.94, 1.04, 0, 0, 0, 1.0, 0, 0, 1, 1, 1, 42.248, 0, 1, 1, 0, 1, 0, 1, 0, 1, 0, 1
127, '1', 42.248, -7.94, 62.21, -7.94, 1.04, 0, 0, 0, 1.0, 0, 0, 1, 1, 1, 42.248, 0, 1, 1, 0, 1, 0, 1, 0, 1, 0, 1
128, '1', 42.248, -7.94, 62.21, -7.94, 1.04, 0, 0, 0, 1.0, 0, 0, 1, 1, 1, 42.248, 0, 1, 1, 0, 1, 0, 1, 0, 1, 0, 1
144, '1', 602.55, -49.41, 221.74, -49.41, 1.04, 0, 0, 0, 1.0, 0, 0, 1, 1, 1, 602.55, 180.76, 1, 1, 0, 1, 0, 1, 0, 1, 0, 1
145, '1', 602.55, -49.41, 221.74, -49.41, 1.04, 0, 0, 0, 1.0, 0, 0, 1, 1, 1, 602.55, 180.76, 1, 1, 0, 1, 0, 1, 0, 1, 0, 1
167, '1', 50.462, -9.48, 74.3, -9.48, 1.04, 0, 0, 0, 1.0, 0, 0, 1, 1, 1, 50.462, 0, 1, 1, 0, 1, 0, 1, 0, 1, 0, 1
168, '1', 50.462, -9.48, 74.3, -9.48, 1.04, 0, 0, 0, 1.0, 0, 0, 1, 1, 1, 50.462, 0, 1, 1, 0, 1, 0, 1, 0, 1, 0, 1
169, '1', 100.925, -18.96, 148.61, -18.96, 1.04, 0, 0, 0, 1.0, 0, 0, 1, 1, 1, 100.925, 0, 1, 1, 0, 1, 0, 1, 0, 1, 0, 1
197, '1', 93.272785, -35.82, 136.82, -35.82, 1.04, 0, 0, 0, 1.0, 0, 0, 1, 1, 1, 293.6, 88.08, 1, 1, 0, 1, 0, 1, 0, 1, 0, 1
198, '1', 65.856432, -25.29, 96.6, -25.29, 1.04, 0, 0, 0, 1.0, 0, 0, 1, 1, 1, 207.3, 62.19, 1, 1, 0, 1, 0, 1, 0, 1, 0, 1
222, '1', 1.356, -0.25, 2, -0.25, 1.0397154, 0, 0, 0, 1.0, 0, 0, 1, 1, 1, 1.356, 0, 1, 1, 0, 1, 0, 1, 0, 1, 0, 1
223, '1', 4.694, -0.88, 6.91, -0.88, 1.04, 0, 0, 0, 1.0, 0, 0, 1, 1, 1, 4.694, 0, 1, 1, 0, 1, 0, 1, 0, 1, 0, 1
224, '1', 133.315, -25.05, 196.3, -25.05, 1.04, 0, 0, 0, 1.0, 0, 0, 1, 1, 1, 133.315, 0, 1, 1, 0, 1, 0, 1, 0, 1, 0, 1
225, '1', 134.253, -25.23, 197.68, -25.23, 1.04, 0, 0, 0, 1.0, 0, 0, 1, 1, 1, 134.253, 0, 1, 1, 0, 1, 0, 1, 0, 1, 0, 1
231, '1', 0, 1.35, 1.35, -0.35, 1.0168854, 0, 0, 0, 1.0, 0, 0, 1, 0, 1, 2.9, 0.87, 1, 1, 0, 1, 0, 1, 0, 1, 0, 1
248, '1', 0, 4.003, 67.8, -14.79, 1.0385759, 0, 0, 0, 1.0, 0, 0, 1, 0, 1, 133.2, 39.96, 1, 1, 0, 1, 0, 1, 0, 1, 0, 1
249, '1', 0, 0, 67.8, -14.79, 1.0385759, 0, 0, 0, 1.0, 0, 0, 1, 0, 1, 133.2, 39.96, 1, 1, 0, 1, 0, 1, 0, 1, 0, 1
250, '1', 0, 0, 271.2, -59.14, 1.0385759, 0, 0, 0, 1.0, 0, 0, 1, 0, 1, 532.8, 159.84, 1, 1, 0, 1, 0, 1, 0, 1, 0, 1
254, '1', 0, 1.91, 1.91, -0.5, 1.0172416, 0, 0, 0, 1.0, 0, 0, 1, 0, 1, 4.1, 1.23, 1, 1, 0, 1, 0, 1, 0, 1, 0, 1
255, '1', 0, 1.54, 1.54, -0.4, 1.0172416, 0, 0, 0, 1.0, 0, 0, 1, 0, 1, 3.3, 0.99, 1, 1, 0, 1, 0, 1, 0, 1, 0, 1
256, '1', 0, 1.35, 1.35, -0.35, 1.0172416, 0, 0, 0, 1.0, 0, 0, 1, 0, 1, 2.9, 0.87, 1, 1, 0, 1, 0, 1, 0, 1, 0, 1
257, '1', 0, 2.52, 2.52, -0.66, 1.0172416, 0, 0, 0, 1.0, 0, 0, 1, 0, 1, 5.4, 1.62, 1, 1, 0, 1, 0, 1, 0, 1, 0, 1
258, '1', 0, 0.51, 0.51, -0.13, 1.0172416, 0, 0, 0, 1.0, 0, 0, 1, 0, 1, 1.1, 0.33, 1, 1, 0, 1, 0, 1, 0, 1, 0, 1
264, '1', 0, 13.651, 19.95, -4.35, 1.0318888, 0, 0, 0, 1.0, 0, 0, 1, 0, 1, 39.2, 11.76, 1, 1, 0, 1, 0, 1, 0, 1, 0, 1
265, '1', 0, 5.4, 5.4, -1.18, 1.0318888, 0, 0, 0, 1.0, 0, 0, 1, 0, 1, 10.6, 3.18, 1, 1, 0, 1, 0, 1, 0, 1, 0, 1
275, '1', 0, 16.892, 51.51, -11.23, 1.0244355, 0, 0, 0, 1.0, 0, 0, 1, 0, 1, 101.2, 30.36, 1, 1, 0, 1, 0, 1, 0, 1, 0, 1
301, '1', 0, 1.35, 1.35, -0.35, 1.0164294, 0, 0, 0, 1.0, 0, 0, 1, 0, 1, 2.9, 0.87, 1, 1, 0, 1, 0, 1, 0, 1, 0, 1
302, '1', 0, 1.35, 1.35, -0.35, 1.0164294, 0, 0, 0, 1.0, 0, 0, 1, 0, 1, 2.9, 0.87, 1, 1, 0, 1, 0, 1, 0, 1, 0, 1
305, '1', 0.261, -0.05, 0.38, -0.05, 1.0180283, 0, 0, 0, 1.0, 0, 0, 1, 1, 1, 0.261, 0, 1, 1, 0, 1, 0, 1, 0, 1, 0, 1
306, '1', 0.626, -0.12, 0.92, -0.12, 1.0182647, 0, 0, 0, 1.0, 0, 0, 1, 1, 1, 0.626, 0, 1, 1, 0, 1, 0, 1, 0, 1, 0, 1
319, '1', 11.031, -2.07, 16.24, -2.07, 1.039454, 0, 0, 0, 1.0, 0, 0, 1, 1, 1, 11.031, 0, 1, 1, 0, 1, 0, 1, 0, 1, 0, 1
350, '1', 3.912, -0.74, 5.76, -0.74, 1.04, 0, 0, 0, 1.0, 0, 0, 1, 1, 1, 3.912, 0, 1, 1, 0, 1, 0, 1, 0, 1, 0, 1
351, '1', 1.617, -0.3, 2.38, -0.3, 1.0380018, 0, 0, 0, 1.0, 0, 0, 1, 1, 1, 1.617, 0, 1, 1, 0, 1, 0, 1, 0, 1, 0, 1
352, '1', 3.755, -0.71, 5.53, -0.71, 1.04, 0, 0, 0, 1.0, 0, 0, 1, 1, 1, 3.755, 0, 1, 1, 0, 1, 0, 1, 0, 1, 0, 1
353, '1', 19.298, -3.63, 28.42, -3.63, 1.04, 0, 0, 0, 1.0, 0, 0, 1, 1, 1, 19.298, 0, 1, 1, 0, 1, 0, 1, 0, 1, 0, 1
361, '1', 0, 0.81, 0.81, -0.18, 1.0251029, 0, 0, 0, 1.0, 0, 0, 1, 0, 1, 1.6, 0.48, 1, 1, 0, 1, 0, 1, 0, 1, 0, 1
362, '1', 0, 0, 5.6, -1.22, 1.0251029, 0, 0, 0, 1.0, 0, 0, 1, 0, 1, 11, 3.3, 1, 1, 0, 1, 0, 1, 0, 1, 0, 1
363, '1', 0, 0, 1.63, -0.36, 1.0251029, 0, 0, 0, 1.0, 0, 0, 1, 0, 1, 3.2, 0.96, 1, 1, 0, 1, 0, 1, 0, 1, 0, 1
388, '1', 0, 0, 5.09, -1.11, 1.0347401, 0, 0, 0, 1.0, 0, 0, 1, 0, 1, 10, 3, 1, 1, 0, 1, 0, 1, 0, 1, 0, 1
389, '1', 0, 0, 88.23, -19.24, 1.0347401, 0, 0, 0, 1.0, 0, 0, 1, 0, 1, 173.333, 52, 1, 1, 0, 1, 0, 1, 0, 1, 0, 1
390, '1', 0, 0, 88.23, -19.24, 1.0347401, 0, 0, 0, 1.0, 0, 0, 1, 0, 1, 173.333, 52, 1, 1, 0, 1, 0, 1, 0, 1, 0, 1
391, '1', 0, 0, 88.23, -19.24, 1.0347401, 0, 0, 0, 1.0, 0, 0, 1, 0, 1, 173.333, 52, 1, 1, 0, 1, 0, 1, 0, 1, 0, 1
392, '1', 0, 0, 59.25, -12.92, 1.0347401, 0, 0, 0, 1.0, 0, 0, 1, 0, 1, 116.4, 34.92, 1, 1, 0, 1, 0, 1, 0, 1, 0, 1
393, '1', 0, 0, 59.25, -12.92, 1.0347401, 0, 0, 0, 1.0, 0, 0, 1, 0, 1, 116.4, 34.92, 1, 1, 0, 1, 0, 1, 0, 1, 0, 1
394, '1', 0, 0, 59.25, -12.92, 1.0347401, 0, 0, 0, 1.0, 0, 0, 1, 0, 1, 116.4, 34.92, 1, 1, 0, 1, 0, 1, 0, 1, 0, 1
395, '1', 0, 0, 59.25, -12.92, 1.0347401, 0, 0, 0, 1.0, 0, 0, 1, 0, 1, 116.4, 34.92, 1, 1, 0, 1, 0, 1, 0, 1, 0, 1
396, '1', 0, 0, 59.25, -12.92, 1.0347401, 0, 0, 0, 1.0, 0, 0, 1, 0, 1, 116.4, 34.92, 1, 1, 0, 1, 0, 1, 0, 1, 0, 1
409, '1', 31.76866, -11.1, 50.9, -11.1, 1.04, 0, 0, 0, 1.0, 0, 0, 1, 1, 1, 100, 30, 1, 1, 0, 1, 0, 1, 0, 1, 0, 1
410, '1', 41.806565, -15.2, 69.71, -15.2, 1.04, 0, 0, 0, 1.0, 0, 0, 1, 1, 1, 136.95, 41.08, 1, 1, 0, 1, 0, 1, 0, 1, 0, 1
411, '1', 0, -0.964, 69.71, -15.2, 1.0417629, 0, 0, 0, 1.0, 0, 0, 1, 0, 1, 136.95, 41.08, 1, 1, 0, 1, 0, 1, 0, 1, 0, 1
412, '1', 0, -0.822, 69.71, -15.2, 1.0417629, 0, 0, 0, 1.0, 0, 0, 1, 0, 1, 136.95, 41.08, 1, 1, 0, 1, 0, 1, 0, 1, 0, 1
413, '1', 0, -0.809, 69.71, -15.2, 1.0417629, 0, 0, 0, 1.0, 0, 0, 1, 0, 1, 136.95, 41.08, 1, 1, 0, 1, 0, 1, 0, 1, 0, 1
414, '1', 35.294981, -12.33, 56.55, -12.33, 1.04, 0, 0, 0, 1.0, 0, 0, 1, 1, 1, 111.1, 33.33, 1, 1, 0, 1, 0, 1, 0, 1, 0, 1
430, '1', 0.261, -0.05, 0.38, -0.05, 1.039101, 0, 0, 0, 1.0, 0, 0, 1, 1, 1, 0.261, 0, 1, 1, 0, 1, 0, 1, 0, 1, 0, 1
431, '1', 0.861, -0.16, 1.27, -0.16, 1.0393142, 0, 0, 0, 1.0, 0, 0, 1, 1, 1, 0.861, 0, 1, 1, 0, 1, 0, 1, 0, 1, 0, 1
432, '1', 0.313, -0.06, 0.46, -0.06, 1.0390069, 0, 0, 0, 1.0, 0, 0, 1, 1, 1, 0.313, 0, 1, 1, 0, 1, 0, 1, 0, 1, 0, 1
433, '1', 1.747, -0.33, 2.57, -0.33, 1.04, 0, 0, 0, 1.0, 0, 0, 1, 1, 1, 1.747, 0, 1, 1, 0, 1, 0, 1, 0, 1, 0, 1
434, '1', 1.121, -0.21, 1.65, -0.21, 1.0392283, 0, 0, 0, 1.0, 0, 0, 1, 1, 1, 1.121, 0, 1, 1, 0, 1, 0, 1, 0, 1, 0, 1
435, '1', 51.375, -9.65, 75.65, -9.65, 1.04, 0, 0, 0, 1.0, 0, 0, 1, 1, 1, 51.375, 0, 1, 1, 0, 1, 0, 1, 0, 1, 0, 1
436, '1', 51.375, -9.65, 75.65, -9.65, 1.04, 0, 0, 0, 1.0, 0, 0, 1, 1, 1, 51.375, 0, 1, 1, 0, 1, 0, 1, 0, 1, 0, 1
437, '1', 51.375, -9.65, 75.65, -9.65, 1.04, 0, 0, 0, 1.0, 0, 0, 1, 1, 1, 51.375, 0, 1, 1, 0, 1, 0, 1, 0, 1, 0, 1
438, '1', 51.375, -9.65, 75.65, -9.65, 1.04, 0, 0, 0, 1.0, 0, 0, 1, 1, 1, 51.375, 0, 1, 1, 0, 1, 0, 1, 0, 1, 0, 1
439, '1', 51.375, -9.65, 75.65, -9.65, 1.04, 0, 0, 0, 1.0, 0, 0, 1, 1, 1, 51.375, 0, 1, 1, 0, 1, 0, 1, 0, 1, 0, 1
442, '1', 0, 0, 54.97, -11.99, 1.0309323, 0, 0, 0, 1.0, 0, 0, 1, 0, 1, 108, 32.4, 1, 1, 0, 1, 0, 1, 0, 1, 0, 1
443, '1', 0, 28.979, 89.07, -19.43, 1.0309323, 0, 0, 0, 1.0, 0, 0, 1, 0, 1, 175, 52.5, 1, 1, 0, 1, 0, 1, 0, 1, 0, 1
444, '1', 0, 1.68, 1.68, -0.37, 1.0309323, 0, 0, 0, 1.0, 0, 0, 1, 0, 1, 3.3, 0.99, 1, 1, 0, 1, 0, 1, 0, 1, 0, 1
455, '1', 0, 40.736, 113.42, -24.73, 1.0306405, 0, 0, 0, 1.0, 0, 0, 1, 0, 1, 222.833, 66.85, 1, 1, 0, 1, 0, 1, 0, 1, 0, 1
456, '1', 0, 0, 226.84, -49.47, 1.0306405, 0, 0, 0, 1.0, 0, 0, 1, 0, 1, 445.667, 133.7, 1, 1, 0, 1, 0, 1, 0, 1, 0, 1
458, '1', 0, 0, 0, 0, 1.0277928, 0, 0, 0, 1.0, 0, 0, 1, 0, 1, 109.6, 32.88, 1, 1, 0, 1, 0, 1, 0, 1, 0, 1
463, '1', 0, 3.36, 3.36, -0.88, 1.0337414, 0, 0, 0, 1.0, 0, 0, 1, 0, 1, 7.2, 2.16, 1, 1, 0, 1, 0, 1, 0, 1, 0, 1
480, '1', 14.604, -2.74, 21.5, -2.74, 1.04, 0, 0, 0, 1.0, 0, 0, 1, 1, 1, 14.604, 0, 1, 1, 0, 1, 0, 1, 0, 1, 0, 1
481, '1', 11.735, -2.21, 17.28, -2.21, 1.04, 0, 0, 0, 1.0, 0, 0, 1, 1, 1, 11.735, 0, 1, 1, 0, 1, 0, 1, 0, 1, 0, 1
482, '1', 11.735, -2.21, 17.28, -2.21, 1.04, 0, 0, 0, 1.0, 0, 0, 1, 1, 1, 11.735, 0, 1, 1, 0, 1, 0, 1, 0, 1, 0, 1
483, '1', 6.259, -1.18, 9.22, -1.18, 1.04, 0, 0, 0, 1.0, 0, 0, 1, 1, 1, 6.259, 0, 1, 1, 0, 1, 0, 1, 0, 1, 0, 1
484, '1', 7.302, -1.37, 10.75, -1.37, 1.04, 0, 0, 0, 1.0, 0, 0, 1, 1, 1, 7.302, 0, 1, 1, 0, 1, 0, 1, 0, 1, 0, 1
494, '1', 0, 2.7, 2.7, -0.71, 1.0303612, 0, 0, 0, 1.0, 0, 0, 1, 0, 1, 5.8, 1.74, 1, 1, 0, 1, 0, 1, 0, 1, 0, 1
497, '1', 15.647, -2.94, 23.04, -2.94, 1.04, 0, 0, 0, 1.0, 0, 0, 1, 1, 1, 15.647, 0, 1, 1, 0, 1, 0, 1, 0, 1, 0, 1
498, '1', 4.694, -0.88, 6.91, -0.88, 1.0373775, 0, 0, 0, 1.0, 0, 0, 1, 1, 1, 4.694, 0, 1, 1, 0, 1, 0, 1, 0, 1, 0, 1
0 / END OF GENERATOR DATA, BEGIN BRANCH DATA
2, 1, '1', 0.000530993, 0.00313968, 0, 76.5, 76.5, 76.5, 0, 0, 0, 0, 1, 1, 0, 1, 1, 0, 1, 0, 1, 0, 1
44, 1, '1', 0.00547862, 0.0502567, 0.0178098, 250, 250, 250, 0, 0, 0, 0, 1, 1, 0, 1, 1, 0, 1, 0, 1, 0, 1
421, 1, '1', 0.00536892, 0.0515552, 0.0166426, 200, 200, 200, 0, 0, 0, 0, 1, 1, 0, 1, 1, 0, 1, 0, 1, 0, 1
4, 3, '1', 0.000692061, 0.00351835, 0, 225.1, 225.1, 225.1, 0, 0, 0, 0, 1, 1, 0, 1, 1, 0, 1, 0, 1, 0, 1
62, 3, '1', 0.0027178, 0.0260978, 0.00842465, 250, 250, 250, 0, 0, 0, 0, 1, 1, 0, 1, 1, 0, 1, 0, 1, 0, 1
3, 479, '1', 0.00725845, 0.0696995, 0.0224998, 145, 145, 145, 0, 0, 0, 0, 1, 1, 0, 1, 1, 0, 1, 0, 1, 0, 1
6, 5, '1', 0.000555857, 0.00356302, 0, 4.5, 4.5, 4.5, 0, 0, 0, 0, 1, 1, 0, 1, 1, 0, 1, 0, 1, 0, 1
316, 5, '1', 0.00244518, 0.0234799, 0.00757958, 145, 145, 145, 0, 0, 0, 0, 1, 1, 0, 1, 1, 0, 1, 0, 1, 0, 1
401, 5, '1', 0.00488619, 0.0469198, 0.0151462, 145, 145, 145, 0, 0, 0, 0, 1, 1, 0, 1, 1, 0, 1, 0, 1, 0, 1
7, 232, '1', 0.00111912, 0.0148076, 0.312051, 1100, 1100, 1100, 0, 0, 0, 0, 1, 1, 0, 1, 1, 0, 1, 0, 1, 0, 1
7, 262, '1', 0.000946655, 0.0137492, 0.239936, 900, 900, 900, 0, 0, 0, 0, 1, 1, 0, 1, 1, 0, 1, 0, 1, 0, 1
8, 287, '1', 0.00372677, 0.0357864, 0.0115523, 300, 300, 300, 0, 0, 0, 0, 1, 1, 0, 1, 1, 0, 1, 0, 1, 0, 1
8, 457, '1', 0.00197391, 0.0189546, 0.00611875, 200, 200, 200, 0, 0, 0, 0, 1, 1, 0, 1, 1, 0, 1, 0, 1, 0, 1
11, 10, '1', 0.000654968, 0.00320079, 0, 4, 4, 4, 0, 0, 0, 0, 1, 1, 0, 1, 1, 0, 1, 0, 1, 0, 1
342, 10, '1', 0.00282453, 0.0271226, 0.00875548, 145, 145, 145, 0, 0, 0, 0, 1, 1, 0, 1, 1, 0, 1, 0, 1, 0, 1
10, 349, '1', 0.00140166, 0.0134595, 0.00434489, 145, 145, 145, 0, 0, 0, 0, 1, 1, 0, 1, 1, 0, 1, 0, 1, 0, 1
13, 12, '1', 0.000623092, 0.00313413, 0, 65.5, 65.5, 65.5, 0, 0, 0, 0, 1, 1, 0, 1, 1, 0, 1, 0, 1, 0, 1
12, 216, '1', 0.00396229, 0.038048, 0.0122823, 270, 270, 270, 0, 0, 0, 0, 1, 1, 0, 1, 1, 0, 1, 0, 1, 0, 1
12, 304, '1', 0.00231014, 0.0211915, 0.00750976, 290, 290, 290, 0, 0, 0, 0, 1, 1, 0, 1, 1, 0, 1, 0, 1, 0, 1
12, 441, '1', 0.00156469, 0.015025, 0.00485023, 280, 280, 280, 0, 0, 0, 0, 1, 1, 0, 1, 1, 0, 1, 0, 1, 0, 1
386, 14, '1', 0.000316955, 0.00454654, 0.0813632, 900, 900, 900, 0, 0, 0, 0, 1, 1, 0, 1, 1, 0, 1, 0, 1, 0, 1
386, 14, '2', 0.00032, 0.00455, 0.08136, 1200, 1200, 1200, 0, 0, 0, 0, 1, 1, 0, 1, 1, 0, 1, 0, 1, 0, 1
15, 91, '1', 0.00479928, 0.0460852, 0.0148768, 160, 160, 160, 0, 0, 0, 0, 1, 1, 0, 1, 1, 0, 1, 0, 1, 0, 1
15, 230, '1', 0.0108937, 0.104607, 0.0337685, 220, 220, 220, 0, 0, 0, 0, 1, 1, 0, 1, 1, 0, 1, 0, 1, 0, 1
367, 15, '1', 0.00191786, 0.0184163, 0.00594499, 330, 330, 330, 0, 0, 0, 0, 1, 1, 0, 1, 1, 0, 1, 0, 1, 0, 1
15, 369, '1', 0.00185435, 0.0170105, 0.0060281, 220, 220, 220, 0, 0, 0, 0, 1, 1, 0, 1, 1, 0, 1, 0, 1, 0, 1
15, 473, '1', 0.00922481, 0.0846215, 0.0299878, 145, 145, 145, 0, 0, 0, 0, 1, 1, 0, 1, 1, 0, 1, 0, 1, 0, 1
20, 19, '1', 0.000541213, 0.00388582, 0, 7.5, 7.5, 7.5, 0, 0, 0, 0, 1, 1, 0, 1, 1, 0, 1, 0, 1, 0, 1
19, 112, '1', 0.00472218, 0.0453449, 0.0146378, 145, 145, 145, 0, 0, 0, 0, 1, 1, 0, 1, 1, 0, 1, 0, 1, 0, 1
193, 19, '1', 0.00222052, 0.0213226, 0.00688319, 270, 270, 270, 0, 0, 0, 0, 1, 1, 0, 1, 1, 0, 1, 0, 1, 0, 1
19, 272, '1', 0.00229314, 0.0220199, 0.00710827, 205, 205, 205, 0, 0, 0, 0, 1, 1, 0, 1, 1, 0, 1, 0, 1, 0, 1
22, 21, '1', 0.000587223, 0.00317397, 0, 254.2, 254.2, 254.2, 0, 0, 0, 0, 1, 1, 0, 1, 1, 0, 1, 0, 1, 0, 1
21, 112, '1', 0.00509204, 0.0488965, 0.0157843, 270, 270, 270, 0, 0, 0, 0, 1, 1, 0, 1, 1, 0, 1, 0, 1, 0, 1
21, 196, '1', 0.00220719, 0.0202471, 0.00717509, 365, 365, 365, 0, 0, 0, 0, 1, 1, 0, 1, 1, 0, 1, 0, 1, 0, 1
151, 23, '1', 0.000181712, 0.00260656, 0.046646, 1050, 1050, 1050, 0, 0, 0, 0, 1, 1, 0, 1, 1, 0, 1, 0, 1, 0, 1
23, 386, '1', 0.001642, 0.023851, 0.416226, 1000, 1000, 1000, 0, 0, 0, 0, 0, 1, 0, 1, 1, 0, 1, 0, 1, 0, 1
23, 464, '1', 0.000947169, 0.0125324, 0.264105, 1000, 1000, 1000, 0, 0, 0, 0, 1, 1, 0, 1, 1, 0, 1, 0, 1, 0, 1
23, 471, '1', 0.000532103, 0.0070405, 0.14837, 1100, 1100, 1100, 0, 0, 0, 0, 1, 1, 0, 1, 1, 0, 1, 0, 1, 0, 1
25, 24, '1', 0.000613052, 0.00362887, 0, 3.6, 3.6, 3.6, 0, 0, 0, 0, 1, 1, 0, 1, 1, 0, 1, 0, 1, 0, 1
26, 24, '1', 0.000563017, 0.00372943, 0, 29.5, 29.5, 29.5, 0, 0, 0, 0, 1, 1, 0, 1, 1, 0, 1, 0, 1, 0, 1
210, 24, '1', 0.00221775, 0.020344, 0.00720941, 270, 270, 270, 0, 0, 0, 0, 1, 1, 0, 1, 1, 0, 1, 0, 1, 0, 1
24, 360, '1', 0.0023654, 0.0227138, 0.00733228, 240, 240, 240, 0, 0, 0, 0, 1, 1, 0, 1, 1, 0, 1, 0, 1, 0, 1
28, 27, '1', 0.000686715, 0.00396302, 0, 108.6, 108.6, 108.6, 0, 0, 0, 0, 1, 1, 0, 1, 1, 0, 1, 0, 1, 0, 1
27, 68, '1', 0.00560738, 0.053845, 0.0173818, 300, 300, 300, 0, 0, 0, 0, 1, 1, 0, 1, 1, 0, 1, 0, 1, 0, 1
27, 382, '1', 0.00336979, 0.0309119, 0.0109544, 185, 185, 185, 0, 0, 0, 0, 1, 1, 0, 1, 1, 0, 1, 0, 1, 0, 1
30, 29, '1', 0.000616364, 0.00329848, 0, 157, 157, 157, 0, 0, 0, 0, 1, 1, 0, 1, 1, 0, 1, 0, 1, 0, 1
454, 29, '1', 0.00246982, 0.0226563, 0.00802886, 300, 300, 300, 0, 0, 0, 0, 1, 1, 0, 1, 1, 0, 1, 0, 1, 0, 1
29, 491, '1', 0.005607, 0.053837, 0.017379, 145, 145, 145, 0, 0, 0, 0, 1, 1, 0, 1, 1, 0, 1, 0, 1, 0, 1
32, 31, '1', 0.000625228, 0.00342917, 0, 15.7, 15.7, 15.7, 0, 0, 0, 0, 1, 1, 0, 1, 1, 0, 1, 0, 1, 0, 1
31, 85, '1', 0.00530344, 0.0509265, 0.0164396, 300, 300, 300, 0, 0, 0, 0, 1, 1, 0, 1, 1, 0, 1, 0, 1, 0, 1
104, 31, '1', 0.00552581, 0.0530617, 0.0171289, 145, 145, 145, 0, 0, 0, 0, 1, 1, 0, 1, 1, 0, 1, 0, 1, 0, 1
31, 189, '1', 0.0057068, 0.0547997, 0.01769, 145, 145, 145, 0, 0, 0, 0, 1, 1, 0, 1, 1, 0, 1, 0, 1, 0, 1
31, 205, '1', 0.00779682, 0.0748692, 0.0241686, 145, 145, 145, 0, 0, 0, 0, 1, 1, 0, 1, 1, 0, 1, 0, 1, 0, 1
31, 218, '1', 0.00827343, 0.0794458, 0.025646, 145, 145, 145, 0, 0, 0, 0, 1, 1, 0, 1, 1, 0, 1, 0, 1, 0, 1
267, 31, '1', 0.00489674, 0.0470211, 0.0151789, 220, 220, 220, 0, 0, 0, 0, 1, 1, 0, 1, 1, 0, 1, 0, 1, 0, 1
34, 33, '1', 0.000624403, 0.00328363, 0, 43.4, 43.4, 43.4, 0, 0, 0, 0, 1, 1, 0, 1, 1, 0, 1, 0, 1, 0, 1
83, 33, '1', 0.00528651, 0.0507639, 0.0163871, 220, 220, 220, 0, 0, 0, 0, 1, 1, 0, 1, 1, 0, 1, 0, 1, 0, 1
112, 33, '1', 0.00706143, 0.0678076, 0.021889, 220, 220, 220, 0, 0, 0, 0, 1, 1, 0, 1, 1, 0, 1, 0, 1, 0, 1
36, 35, '1', 0.000582978, 0.00303006, 0, 62.9, 62.9, 62.9, 0, 0, 0, 0, 1, 1, 0, 1, 1, 0, 1, 0, 1, 0, 1
191, 35, '1', 0.00403801, 0.0370417, 0.0131267, 145, 145, 145, 0, 0, 0, 0, 1, 1, 0, 1, 1, 0, 1, 0, 1, 0, 1
35, 399, '1', 0.005636, 0.054123, 0.017472, 270, 270, 270, 0, 0, 0, 0, 1, 1, 0, 1, 1, 0, 1, 0, 1, 0, 1
38, 37, '1', 0.0005458, 0.00382289, 0, 0.2, 0.2, 0.2, 0, 0, 0, 0, 1, 1, 0, 1, 1, 0, 1, 0, 1, 0, 1
76, 37, '1', 0.00147415, 0.0141555, 0.00456957, 270, 270, 270, 0, 0, 0, 0, 1, 1, 0, 1, 1, 0, 1, 0, 1, 0, 1
37, 176, '1', 0.00303873, 0.0291795, 0.00941948, 275, 275, 275, 0, 0, 0, 0, 1, 1, 0, 1, 1, 0, 1, 0, 1, 0, 1
39, 332, '1', 0.000403375, 0.00578618, 0.103547, 900, 900, 900, 0, 0, 0, 0, 1, 1, 0, 1, 1, 0, 1, 0, 1, 0, 1
39, 428, '1', 0.000521367, 0.00689845, 0.145376, 900, 900, 900, 0, 0, 0, 0, 1, 1, 0, 1, 1, 0, 1, 0, 1, 0, 1
41, 40, '1', 0.000631179, 0.00392265, 0, 97.5, 97.5, 97.5, 0, 0, 0, 0, 1, 1, 0, 1, 1, 0, 1, 0, 1, 0, 1
40, 131, '1', 0.00290861, 0.0266814, 0.00945527, 145, 145, 145, 0, 0, 0, 0, 1, 1, 0, 1, 1, 0, 1, 0, 1, 0, 1
43, 42, '1', 0.000541641, 0.00311887, 0, 7.7, 7.7, 7.7, 0, 0, 0, 0, 1, 1, 0, 1, 1, 0, 1, 0, 1, 0, 1
81, 42, '1', 0.00236124, 0.0216602, 0.00767586, 270, 270, 270, 0, 0, 0, 0, 1, 1, 0, 1, 1, 0, 1, 0, 1, 0, 1
42, 191, '1', 0.0063685, 0.0584198, 0.0207026, 270, 270, 270, 0, 0, 0, 0, 1, 1, 0, 1, 1, 0, 1, 0, 1, 0, 1
45, 44, '1', 0.000636537, 0.00387643, 0, 2.8, 2.8, 2.8, 0, 0, 0, 0, 1, 1, 0, 1, 1, 0, 1, 0, 1, 0, 1
44, 200, '1', 0.00210518, 0.0193113, 0.00684347, 250, 250, 250, 0, 0, 0, 0, 1, 1, 0, 1, 1, 0, 1, 0, 1, 0, 1
47, 46, '1', 0.000602161, 0.00345412, 0, 63, 63, 63, 0, 0, 0, 0, 1, 1, 0, 1, 1, 0, 1, 0, 1, 0, 1
46, 156, '1', 0.00661096, 0.0634819, 0.0204927, 185, 185, 185, 0, 0, 0, 0, 1, 1, 0, 1, 1, 0, 1, 0, 1, 0, 1
238, 46, '1', 0.00313385, 0.0300929, 0.00971433, 185, 185, 185, 0, 0, 0, 0, 1, 1, 0, 1, 1, 0, 1, 0, 1, 0, 1
51, 48, '1', 0.000657783, 0.00367224, 0, 0.6, 0.6, 0.6, 0, 0, 0, 0, 1, 1, 0, 1, 1, 0, 1, 0, 1, 0, 1
52, 48, '1', 0.00062, 0.00334229, 0, 37.9, 37.9, 37.9, 0, 0, 0, 0, 1, 1, 0, 1, 1, 0, 1, 0, 1, 0, 1
358, 48, '1', 0.00450039, 0.0412832, 0.0146298, 270, 270, 270, 0, 0, 0, 0, 1, 1, 0, 1, 1, 0, 1, 0, 1, 0, 1
419, 48, '1', 0.0046368, 0.044525, 0.0143732, 220, 220, 220, 0, 0, 0, 0, 1, 1, 0, 1, 1, 0, 1, 0, 1, 0, 1
54, 53, '1', 0.000680462, 0.00306134, 0, 51.3, 51.3, 51.3, 0, 0, 0, 0, 1, 1, 0, 1, 1, 0, 1, 0, 1, 0, 1
233, 53, '1', 0.00236198, 0.0216671, 0.0076783, 200, 200, 200, 0, 0, 0, 0, 1, 1, 0, 1, 1, 0, 1, 0, 1, 0, 1
53, 276, '1', 0.0015021, 0.0144239, 0.00465621, 200, 200, 200, 0, 0, 0, 0, 1, 1, 0, 1, 1, 0, 1, 0, 1, 0, 1
56, 55, '1', 0.000640992, 0.00331002, 0, 3.1, 3.1, 3.1, 0, 0, 0, 0, 1, 1, 0, 1, 1, 0, 1, 0, 1, 0, 1
55, 66, '1', 0.00432958, 0.041575, 0.0134209, 145, 145, 145, 0, 0, 0, 0, 1, 1, 0, 1, 1, 0, 1, 0, 1, 0, 1
55, 500, '1', 0.00448061, 0.0411018, 0.0145655, 145, 145, 145, 0, 0, 0, 0, 1, 1, 0, 1, 1, 0, 1, 0, 1, 0, 1
57, 123, '1', 0.001682, 0.024427, 0.426274, 1000, 1000, 1000, 0, 0, 0, 0, 1, 1, 0, 1, 1, 0, 1, 0, 1, 0, 1
440, 57, '1', 0.000600772, 0.00872563, 0.15227, 900, 900, 900, 0, 0, 0, 0, 1, 1, 0, 1, 1, 0, 1, 0, 1, 0, 1
59, 58, '1', 0.000620439, 0.00384844, 0, 252.9, 252.9, 252.9, 0, 0, 0, 0, 1, 1, 0, 1, 1, 0, 1, 0, 1, 0, 1
58, 253, '1', 0.00453214, 0.04352, 0.0140487, 200, 200, 200, 0, 0, 0, 0, 1, 1, 0, 1, 1, 0, 1, 0, 1, 0, 1
322, 58, '1', 0.00201876, 0.0193852, 0.00625775, 220, 220, 220, 0, 0, 0, 0, 1, 1, 0, 1, 1, 0, 1, 0, 1, 0, 1
322, 58, '2', 0.00202, 0.01939, 0.00626, 320.3, 320.3, 320.3, 0, 0, 0, 0, 1, 1, 0, 1, 1, 0, 1, 0, 1, 0, 1
61, 60, '1', 0.000528782, 0.00351793, 0, 0.3, 0.3, 0.3, 0, 0, 0, 0, 1, 1, 0, 1, 1, 0, 1, 0, 1, 0, 1
60, 131, '1', 0.0019849, 0.018208, 0.00645249, 185, 185, 185, 0, 0, 0, 0, 1, 1, 0, 1, 1, 0, 1, 0, 1, 0, 1
466, 60, '1', 0.00201135, 0.0193141, 0.00623481, 185, 185, 185, 0, 0, 0, 0, 1, 1, 0, 1, 1, 0, 1, 0, 1, 0, 1
64, 62, '1', 0.000661196, 0.00327389, 0, 45.6, 45.6, 45.6, 0, 0, 0, 0, 1, 1, 0, 1, 1, 0, 1, 0, 1, 0, 1
287, 62, '1', 0.00545324, 0.0523649, 0.016904, 160, 160, 160, 0, 0, 0, 0, 1, 1, 0, 1, 1, 0, 1, 0, 1, 0, 1
62, 457, '1', 0.00726746, 0.069786, 0.0225277, 200, 200, 200, 0, 0, 0, 0, 1, 1, 0, 1, 1, 0, 1, 0, 1, 0, 1
80, 65, '1', 0.000960188, 0.0137734, 0.246483, 1350, 1350, 1350, 0, 0, 0, 0, 0, 1, 0, 1, 1, 0, 1, 0, 1, 0, 1
65, 297, '1', 0.000919634, 0.0131916, 0.236073, 900, 900, 900, 0, 0, 0, 0, 1, 1, 0, 1, 1, 0, 1, 0, 1, 0, 1
67, 66, '1', 0.000661357, 0.00335859, 0, 6.7, 6.7, 6.7, 0, 0, 0, 0, 1, 1, 0, 1, 1, 0, 1, 0, 1, 0, 1
66, 308, '1', 0.00718043, 0.0689503, 0.0222579, 270, 270, 270, 0, 0, 0, 0, 0, 1, 0, 1, 1, 0, 1, 0, 1, 0, 1
69, 68, '1', 0.00066883, 0.00399823, 0, 27.6, 27.6, 27.6, 0, 0, 0, 0, 1, 1, 0, 1, 1, 0, 1, 0, 1, 0, 1
68, 295, '1', 0.00446902, 0.0409955, 0.0145278, 145, 145, 145, 0, 0, 0, 0, 1, 1, 0, 1, 1, 0, 1, 0, 1, 0, 1
68, 314, '1', 0.00180512, 0.0173337, 0.00559552, 220, 220, 220, 0, 0, 0, 0, 1, 1, 0, 1, 1, 0, 1, 0, 1, 0, 1
216, 70, '1', 0.00259564, 0.0238105, 0.00843787, 170, 170, 170, 0, 0, 0, 0, 1, 1, 0, 1, 1, 0, 1, 0, 1, 0, 1
70, 490, '1', 0.00212701, 0.0195116, 0.00691444, 170, 170, 170, 0, 0, 0, 0, 1, 1, 0, 1, 1, 0, 1, 0, 1, 0, 1
75, 74, '1', 0.00058441, 0.0033391, 0, 8.8, 8.8, 8.8, 0, 0, 0, 0, 1, 1, 0, 1, 1, 0, 1, 0, 1, 0, 1
74, 189, '1', 0.00563229, 0.0540843, 0.017459, 220, 220, 220, 0, 0, 0, 0, 1, 1, 0, 1, 1, 0, 1, 0, 1, 0, 1
240, 74, '1', 0.00443354, 0.04067, 0.0144125, 220, 220, 220, 0, 0, 0, 0, 1, 1, 0, 1, 1, 0, 1, 0, 1, 0, 1
77, 76, '1', 0.000695009, 0.00331266, 0, 12.2, 12.2, 12.2, 0, 0, 0, 0, 1, 1, 0, 1, 1, 0, 1, 0, 1, 0, 1
452, 76, '1', 0.002012, 0.019322, 0.006237, 330, 330, 330, 0, 0, 0, 0, 1, 1, 0, 1, 1, 0, 1, 0, 1, 0, 1
79, 78, '1', 0.000622277, 0.00327852, 0, 0.5, 0.5, 0.5, 0, 0, 0, 0, 1, 1, 0, 1, 1, 0, 1, 0, 1, 0, 1
78, 328, '1', 0.00543197, 0.0498288, 0.0176582, 260, 260, 260, 0, 0, 0, 0, 1, 1, 0, 1, 1, 0, 1, 0, 1, 0, 1
78, 387, '1', 0.00235449, 0.022609, 0.00729845, 260, 260, 260, 0, 0, 0, 0, 1, 1, 0, 1, 1, 0, 1, 0, 1, 0, 1
407, 80, '1', 0.000818, 0.010825, 0.228132, 1050, 1050, 1050, 0, 0, 0, 0, 1, 1, 0, 1, 1, 0, 1, 0, 1, 0, 1
149, 81, '1', 0.00287908, 0.0264105, 0.00935925, 145, 145, 145, 0, 0, 0, 0, 1, 1, 0, 1, 1, 0, 1, 0, 1, 0, 1
84, 83, '1', 0.000637555, 0.00365521, 0, 105.4, 105.4, 105.4, 0, 0, 0, 0, 1, 1, 0, 1, 1, 0, 1, 0, 1, 0, 1
83, 342, '1', 0.00411562, 0.0395203, 0.0127576, 145, 145, 145, 0, 0, 0, 0, 1, 1, 0, 1, 1, 0, 1, 0, 1, 0, 1
86, 85, '1', 0.00065231, 0.00390108, 0, 30, 30, 30, 0, 0, 0, 0, 1, 1, 0, 1, 1, 0, 1, 0, 1, 0, 1
272, 85, '1', 0.00441169, 0.0404695, 0.0143414, 270, 270, 270, 0, 0, 0, 0, 1, 1, 0, 1, 1, 0, 1, 0, 1, 0, 1
88, 87, '1', 0.000622526, 0.00356856, 0, 7.7, 7.7, 7.7, 0, 0, 0, 0, 1, 1, 0, 1, 1, 0, 1, 0, 1, 0, 1
87, 141, '1', 0.001846, 0.017727, 0.005723, 520, 520, 520, 0, 0, 0, 0, 1, 1, 0, 1, 1, 0, 1, 0, 1, 0, 1
87, 143, '1', 0.00382, 0.035043, 0.012419, 515, 515, 515, 0, 0, 0, 0, 1, 1, 0, 1, 1, 0, 1, 0, 1, 0, 1
423, 87, '1', 0.00183568, 0.0176272, 0.00569025, 270, 270, 270, 0, 0, 0, 0, 1, 1, 0, 1, 1, 0, 1, 0, 1, 0, 1
90, 89, '1', 0.000554087, 0.00386402, 0, 10.5, 10.5, 10.5, 0, 0, 0, 0, 1, 1, 0, 1, 1, 0, 1, 0, 1, 0, 1
89, 187, '1', 0.00211627, 0.0203216, 0.00656004, 145, 145, 145, 0, 0, 0, 0, 1, 1, 0, 1, 1, 0, 1, 0, 1, 0, 1
89, 457, '1', 0.009012, 0.082666, 0.029295, 145, 145, 145, 0, 0, 0, 0, 1, 1, 0, 1, 1, 0, 1, 0, 1, 0, 1
92, 91, '1', 0.0005717, 0.00361724, 0, 104.2, 104.2, 104.2, 0, 0, 0, 0, 1, 1, 0, 1, 1, 0, 1, 0, 1, 0, 1
91, 133, '1', 0.00504049, 0.0484015, 0.0156245, 270, 270, 270, 0, 0, 0, 0, 1, 1, 0, 1, 1, 0, 1, 0, 1, 0, 1
94, 93, '1', 0.000536047, 0.00328149, 0, 8.2, 8.2, 8.2, 0, 0, 0, 0, 1, 1, 0, 1, 1, 0, 1, 0, 1, 0, 1
269, 93, '1', 0.00392064, 0.035965, 0.0127451, 270, 270, 270, 0, 0, 0, 0, 1, 1, 0, 1, 1, 0, 1, 0, 1, 0, 1
336, 93, '1', 0.00579454, 0.0531548, 0.0188368, 270, 270, 270, 0, 0, 0, 0, 1, 1, 0, 1, 1, 0, 1, 0, 1, 0, 1
96, 95, '1', 0.00056273, 0.00325345, 0, 56.2, 56.2, 56.2, 0, 0, 0, 0, 1, 1, 0, 1, 1, 0, 1, 0, 1, 0, 1
95, 170, '1', 0.0021107, 0.020268, 0.00654275, 145, 145, 145, 0, 0, 0, 0, 1, 1, 0, 1, 1, 0, 1, 0, 1, 0, 1
95, 369, '1', 0.00409437, 0.0393163, 0.0126918, 270, 270, 270, 0, 0, 0, 0, 1, 1, 0, 1, 1, 0, 1, 0, 1, 0, 1
98, 97, '1', 0.000568811, 0.00398603, 0, 66.4, 66.4, 66.4, 0, 0, 0, 0, 1, 1, 0, 1, 1, 0, 1, 0, 1, 0, 1
181, 97, '1', 0.00299237, 0.0287344, 0.00927578, 145, 145, 145, 0, 0, 0, 0, 1, 1, 0, 1, 1, 0, 1, 0, 1, 0, 1
358, 97, '1', 0.00267648, 0.024552, 0.00870064, 270, 270, 270, 0, 0, 0, 0, 1, 1, 0, 1, 1, 0, 1, 0, 1, 0, 1
100, 99, '1', 0.000644448, 0.00362034, 0, 22.7, 22.7, 22.7, 0, 0, 0, 0, 1, 1, 0, 1, 1, 0, 1, 0, 1, 0, 1
101, 99, '1', 0.000699472, 0.00329389, 0, 1.4, 1.4, 1.4, 0, 0, 0, 0, 1, 1, 0, 1, 1, 0, 1, 0, 1, 0, 1
99, 465, '1', 0.0026889, 0.0258203, 0.00833507, 145, 145, 145, 0, 0, 0, 0, 1, 1, 0, 1, 1, 0, 1, 0, 1, 0, 1
472, 99, '1', 0.00331831, 0.0318642, 0.0102861, 145, 145, 145, 0, 0, 0, 0, 1, 1, 0, 1, 1, 0, 1, 0, 1, 0, 1
103, 102, '1', 0.000613984, 0.00387398, 0, 64.6, 64.6, 64.6, 0, 0, 0, 0, 1, 1, 0, 1, 1, 0, 1, 0, 1, 0, 1
102, 308, '1', 0.00564993, 0.0542537, 0.0175137, 270, 270, 270, 0, 0, 0, 0, 1, 1, 0, 1, 1, 0, 1, 0, 1, 0, 1
419, 102, '1', 0.00363843, 0.0349382, 0.0112784, 270, 270, 270, 0, 0, 0, 0, 1, 1, 0, 1, 1, 0, 1, 0, 1, 0, 1
105, 104, '1', 0.000672543, 0.00375095, 0, 144.2, 144.2, 144.2, 0, 0, 0, 0, 1, 1, 0, 1, 1, 0, 1, 0, 1, 0, 1
104, 191, '1', 0.00517651, 0.0474854, 0.0168277, 145, 145, 145, 0, 0, 0, 0, 1, 1, 0, 1, 1, 0, 1, 0, 1, 0, 1
107, 106, '1', 0.000574563, 0.00320633, 0, 24.5, 24.5, 24.5, 0, 0, 0, 0, 1, 1, 0, 1, 1, 0, 1, 0, 1, 0, 1
106, 191, '1', 0.00446795, 0.0429036, 0.0138498, 270, 270, 270, 0, 0, 0, 0, 1, 1, 0, 1, 1, 0, 1, 0, 1, 0, 1
236, 106, '1', 0.00311532, 0.029915, 0.00965689, 270, 270, 270, 0, 0, 0, 0, 1, 1, 0, 1, 1, 0, 1, 0, 1, 0, 1
109, 108, '1', 0.000658007, 0.00300957, 0, 62.9, 62.9, 62.9, 0, 0, 0, 0, 1, 1, 0, 1, 1, 0, 1, 0, 1, 0, 1
108, 472, '1', 0.00203292, 0.0195212, 0.00630167, 185, 185, 185, 0, 0, 0, 0, 1, 1, 0, 1, 1, 0, 1, 0, 1, 0, 1
108, 495, '1', 0.00361075, 0.0346724, 0.0111926, 220, 220, 220, 0, 0, 0, 0, 1, 1, 0, 1, 1, 0, 1, 0, 1, 0, 1
111, 110, '1', 0.000526841, 0.00370826, 0, 87, 87, 87, 0, 0, 0, 0, 1, 1, 0, 1, 1, 0, 1, 0, 1, 0, 1
274, 110, '1', 0.00312607, 0.0300181, 0.0096902, 220, 220, 220, 0, 0, 0, 0, 1, 1, 0, 1, 1, 0, 1, 0, 1, 0, 1
110, 316, '1', 0.00343915, 0.0330245, 0.0106607, 145, 145, 145, 0, 0, 0, 0, 1, 1, 0, 1, 1, 0, 1, 0, 1, 0, 1
113, 112, '1', 0.000644371, 0.00311935, 0, 73, 73, 73, 0, 0, 0, 0, 1, 1, 0, 1, 1, 0, 1, 0, 1, 0, 1
193, 112, '1', 0.00286733, 0.0275336, 0.00888817, 175, 175, 175, 0, 0, 0, 0, 1, 1, 0, 1, 1, 0, 1, 0, 1, 0, 1
112, 236, '1', 0.00632924, 0.0607768, 0.0196194, 300, 300, 300, 0, 0, 0, 0, 1, 1, 0, 1, 1, 0, 1, 0, 1, 0, 1
112, 283, '1', 0.00861853, 0.0827597, 0.0267158, 145, 145, 145, 0, 0, 0, 0, 1, 1, 0, 1, 1, 0, 1, 0, 1, 0, 1
372, 112, '1', 0.0020065, 0.0192675, 0.00621976, 285, 285, 285, 0, 0, 0, 0, 1, 1, 0, 1, 1, 0, 1, 0, 1, 0, 1
112, 499, '1', 0.0055765, 0.0511546, 0.018128, 220, 220, 220, 0, 0, 0, 0, 1, 1, 0, 1, 1, 0, 1, 0, 1, 0, 1
115, 114, '1', 0.000506233, 0.00336036, 0, 6.7, 6.7, 6.7, 0, 0, 0, 0, 1, 1, 0, 1, 1, 0, 1, 0, 1, 0, 1
116, 114, '1', 0.000505013, 0.00341051, 0, 5.3, 5.3, 5.3, 0, 0, 0, 0, 1, 1, 0, 1, 1, 0, 1, 0, 1, 0, 1
114, 191, '1', 0.00555724, 0.0533636, 0.0172264, 145, 145, 145, 0, 0, 0, 0, 1, 1, 0, 1, 1, 0, 1, 0, 1, 0, 1
114, 312, '1', 0.0066089, 0.0634622, 0.0204863, 145, 145, 145, 0, 0, 0, 0, 1, 1, 0, 1, 1, 0, 1, 0, 1, 0, 1
118, 117, '1', 0.000633836, 0.00385096, 0, 12.8, 12.8, 12.8, 0, 0, 0, 0, 1, 1, 0, 1, 1, 0, 1, 0, 1, 0, 1
117, 426, '1', 0.00317216, 0.029099, 0.010312, 145, 145, 145, 0, 0, 0, 0, 1, 1, 0, 1, 1, 0, 1, 0, 1, 0, 1
490, 117, '1', 0.00299873, 0.0275081, 0.0097482, 300, 300, 300, 0, 0, 0, 0, 1, 1, 0, 1, 1, 0, 1, 0, 1, 0, 1
120, 119, '1', 0.000556147, 0.00305904, 0, 46.6, 46.6, 46.6, 0, 0, 0, 0, 1, 1, 0, 1, 1, 0, 1, 0, 1, 0, 1
119, 129, '1', 0.00234965, 0.0215539, 0.0076382, 270, 270, 270, 0, 0, 0, 0, 1, 1, 0, 1, 1, 0, 1, 0, 1, 0, 1
253, 119, '1', 0.00149439, 0.0143499, 0.00463231, 250, 250, 250, 0, 0, 0, 0, 1, 1, 0, 1, 1, 0, 1, 0, 1, 0, 1
122, 121, '1', 0.000554934, 0.00384643, 0, 70.4, 70.4, 70.4, 0, 0, 0, 0, 1, 1, 0, 1, 1, 0, 1, 0, 1, 0, 1
121, 276, '1', 0.00254757, 0.0244631, 0.00789698, 145, 145, 145, 0, 0, 0, 0, 1, 1, 0, 1, 1, 0, 1, 0, 1, 0, 1
121, 287, '1', 0.00708754, 0.0680583, 0.02197, 145, 145, 145, 0, 0, 0, 0, 1, 1, 0, 1, 1, 0, 1, 0, 1, 0, 1
165, 123, '1', 0.000216027, 0.00313758, 0.0547534, 900, 900, 900, 0, 0, 0, 0, 1, 1, 0, 1, 1, 0, 1, 0, 1, 0, 1
124, 260, '1', 0.00203952, 0.0187091, 0.00663005, 220, 220, 220, 0, 0, 0, 0, 1, 1, 0, 1, 1, 0, 1, 0, 1, 0, 1
124, 369, '1', 0.00769284, 0.0705683, 0.0250077, 225, 225, 225, 0, 0, 0, 0, 1, 1, 0, 1, 1, 0, 1, 0, 1, 0, 1
130, 129, '1', 0.000698008, 0.00322102, 0, 166, 166, 166, 0, 0, 0, 0, 1, 1, 0, 1, 1, 0, 1, 0, 1, 0, 1
304, 129, '1', 0.00306297, 0.0294122, 0.0094946, 195, 195, 195, 0, 0, 0, 0, 1, 1, 0, 1, 1, 0, 1, 0, 1, 0, 1
324, 129, '1', 0.00187843, 0.0172313, 0.00610636, 195, 195, 195, 0, 0, 0, 0, 1, 1, 0, 1, 1, 0, 1, 0, 1, 0, 1
132, 131, '1', 0.000673258, 0.00361521, 0, 41.6, 41.6, 41.6, 0, 0, 0, 0, 1, 1, 0, 1, 1, 0, 1, 0, 1, 0, 1
131, 333, '1', 0.00222709, 0.0213857, 0.00690355, 300, 300, 300, 0, 0, 0, 0, 1, 1, 0, 1, 1, 0, 1, 0, 1, 0, 1
134, 133, '1', 0.000515032, 0.00308264, 0, 66, 66, 66, 0, 0, 0, 0, 1, 1, 0, 1, 1, 0, 1, 0, 1, 0, 1
133, 226, '1', 0.00644015, 0.0590771, 0.0209355, 145, 145, 145, 0, 0, 0, 0, 1, 1, 0, 1, 1, 0, 1, 0, 1, 0, 1
133, 369, '1', 0.00615507, 0.056462, 0.0200088, 300, 300, 300, 0, 0, 0, 0, 1, 1, 0, 1, 1, 0, 1, 0, 1, 0, 1
473, 133, '1', 0.00475466, 0.0456568, 0.0147385, 145, 145, 145, 0, 0, 0, 0, 1, 1, 0, 1, 1, 0, 1, 0, 1, 0, 1
136, 135, '1', 0.000548777, 0.0036604, 0, 45.6, 45.6, 45.6, 0, 0, 0, 0, 1, 1, 0, 1, 1, 0, 1, 0, 1, 0, 1
135, 287, '1', 0.00756782, 0.0694215, 0.0246013, 300, 300, 300, 0, 0, 0, 0, 1, 1, 0, 1, 1, 0, 1, 0, 1, 0, 1
135, 457, '1', 0.00686487, 0.0629732, 0.0223162, 220, 220, 220, 0, 0, 0, 0, 1, 1, 0, 1, 1, 0, 1, 0, 1, 0, 1
138, 137, '1', 0.000555555, 0.00378798, 0, 122.9, 122.9, 122.9, 0, 0, 0, 0, 1, 1, 0, 1, 1, 0, 1, 0, 1, 0, 1
137, 214, '1', 0.00312011, 0.029961, 0.00967175, 200, 200, 200, 0, 0, 0, 0, 1, 1, 0, 1, 1, 0, 1, 0, 1, 0, 1
137, 426, '1', 0.00299838, 0.028792, 0.00929439, 145, 145, 145, 0, 0, 0, 0, 1, 1, 0, 1, 1, 0, 1, 0, 1, 0, 1
137, 426, '2', 0.003, 0.02879, 0.00929, 320.3, 320.3, 320.3, 0, 0, 0, 0, 1, 1, 0, 1, 1, 0, 1, 0, 1, 0, 1
140, 139, '1', 0.000600197, 0.00318213, 0, 0.4, 0.4, 0.4, 0, 0, 0, 0, 1, 1, 0, 1, 1, 0, 1, 0, 1, 0, 1
139, 376, '1', 0.00267603, 0.0256967, 0.00829519, 185, 185, 185, 0, 0, 0, 0, 1, 1, 0, 1, 1, 0, 1, 0, 1, 0, 1
429, 139, '1', 0.00146772, 0.0140938, 0.00454964, 185, 185, 185, 0, 0, 0, 0, 1, 1, 0, 1, 1, 0, 1, 0, 1, 0, 1
142, 141, '1', 0.000686707, 0.00341671, 0, 209.8, 209.8, 209.8, 0, 0, 0, 0, 1, 1, 0, 1, 1, 0, 1, 0, 1, 0, 1
300, 141, '1', 0.00267026, 0.024495, 0.00868044, 430, 430, 430, 0, 0, 0, 0, 1, 1, 0, 1, 1, 0, 1, 0, 1, 0, 1
...
0 / END OF BRANCH DATA, BEGIN TRANSFORMER DATA
8, 7, 0, '1', 1, 1, 1, 0, 0, 2, ' ', 1, 1, 1, 0, 1, 0, 1, 0, 1, ' '
0.000355062, 0.0129, 567
1, 138, 0, 567, 567, 567, 0, 0, 1.5, .51, 1.5, .51, 159, 0, 0, 0, 0
1, 345
9, 7, 0, '1', 1, 1, 1, 0, 0, 2, ' ', 1, 1, 1, 0, 1, 0, 1, 0, 1, ' '
0.00012, 0.01362, 900
1, 13.8, 0, 900, 900, 900, 0, 0, 1.5, .51, 1.5, .51, 159, 0, 0, 0, 0
1, 345
9, 7, 0, '2', 1, 1, 1, 0, 0, 2, ' ', 1, 1, 1, 0, 1, 0, 1, 0, 1, ' '
0.00012, 0.01362, 900
1, 13.8, 0, 900, 900, 900, 0, 0, 1.5, .51, 1.5, .51, 159, 0, 0, 0, 0
1, 345
15, 14, 0, '1', 1, 1, 1, 0, 0, 2, ' ', 1, 1, 1, 0, 1, 0, 1, 0, 1, ' '
0.000207947, 0.01122, 682
1, 138, 0, 682, 682, 682, 0, 0, 1.5, .51, 1.5, .51, 159, 0, 0, 0, 0
1, 345
16, 14, 0, '1', 1, 1, 1, 0, 0, 2, ' ', 1, 1, 1, 0, 1, 0, 1, 0, 1, ' '
0.000325948, 0.01202, 596
1, 13.8, 0, 596, 596, 596, 0, 0, 1.5, .51, 1.5, .51, 159, 0, 0, 0, 0
1, 345
17, 14, 0, '1', 1, 1, 1, 0, 0, 2, ' ', 1, 1, 1, 0, 1, 0, 1, 0, 1, ' '
0.000279, 0.01438, 930
1, 13.8, 0, 930, 930, 930, 0, 0, 1.5, .51, 1.5, .51, 159, 0, 0, 0, 0
1, 345
17, 14, 0, '2', 1, 1, 1, 0, 0, 2, ' ', 1, 1, 1, 0, 1, 0, 1, 0, 1, ' '
0.000354, 0.01438, 930
1, 13.8, 0, 930, 930, 930, 0, 0, 1.5, .51, 1.5, .51, 159, 0, 0, 0, 0
1, 345
18, 14, 0, '1', 1, 1, 1, 0, 0, 2, ' ', 1, 1, 1, 0, 1, 0, 1, 0, 1, ' '
0.00141719, 0.05115, 340
1, 13.8, 0, 340, 340, 340, 0, 0, 1.5, .51, 1.5, .51, 159, 0, 0, 0, 0
1, 345
24, 23, 0, '1', 1, 1, 1, 0, 0, 2, ' ', 1, 1, 1, 0, 1, 0, 1, 0, 1, ' '
0.00033, 0.01764, 626
1, 138, 0, 626, 626, 626, 0, 0, 1.5, .51, 1.5, .51, 159, 0, 0, 0, 0
1, 345
40, 39, 0, '1', 1, 1, 1, 0, 0, 2, ' ', 1, 1, 1, 0, 1, 0, 1, 0, 1, ' '
0.0007, 0.02531, 428
1, 138, 0, 428, 428, 428, 0, 0, 1.5, .51, 1.5, .51, 159, 0, 0, 0, 0
1, 345
49, 48, 0, '1', 1, 1, 1, 0, 0, 2, ' ', 1, 1, 1, 0, 1, 0, 1, 0, 1, ' '
0.01331, 0.27853, 57
1, 13.8, 0, 57, 57, 57, 0, 0, 1.5, .51, 1.5, .51, 159, 0, 0, 0, 0
1, 138
50, 48, 0, '1', 1, 1, 1, 0, 0, 2, ' ', 1, 1, 1, 0, 1, 0, 1, 0, 1, ' '
0.00715, 0.16356, 100
1, 13.8, 0, 100, 100, 100, 0, 0, 1.5, .51, 1.5, .51, 159, 0, 0, 0, 0
1, 138
58, 57, 0, '1', 1, 1, 1, 0, 0, 2, ' ', 1, 1, 1, 0, 1, 0, 1, 0, 1, ' '
0.00012, 0.01762, 675
1, 138, 0, 675, 675, 675, 0, 0, 1.5, .51, 1.5, .51, 159, 0, 0, 0, 0
1, 345
58, 57, 0, '2', 1, 1, 1, 0, 0, 2, ' ', 1, 1, 1, 0, 1, 0, 1, 0, 1, ' '
0.00012, 0.01762, 675
1, 138, 0, 675, 675, 675, 0, 0, 1.5, .51, 1.5, .51, 159, 0, 0, 0, 0
1, 345
63, 62, 0, '1', 1, 1, 1, 0, 0, 2, ' ', 1, 1, 1, 0, 1, 0, 1, 0, 1, ' '
0.0032, 0.16353, 70
1, 13.8, 0, 70, 70, 70, 0, 0, 1.5, .51, 1.5, .51, 159, 0, 0, 0, 0
1, 138
66, 65, 0, '1', 1, 1, 1, 0, 0, 2, ' ', 1, 1, 1, 0, 1, 0, 1, 0, 1, ' '
0.000807929, 0.03088, 405
1, 138, 0, 405, 405, 405, 0, 0, 1.5, .51, 1.5, .51, 159, 0, 0, 0, 0
1, 345
71, 70, 0, '1', 1, 1, 1, 0, 0, 2, ' ', 1, 1, 1, 0, 1, 0, 1, 0, 1, ' '
0.00103, 0.04472, 133
1, 13.8, 0, 133, 133, 133, 0, 0, 1.5, .51, 1.5, .51, 159, 0, 0, 0, 0
1, 138
72, 70, 0, '1', 1, 1, 1, 0, 0, 2, ' ', 1, 1, 1, 0, 1, 0, 1, 0, 1, ' '
0.00292, 0.14481, 60
1, 13.8, 0, 60, 60, 60, 0, 0, 1.5, .51, 1.5, .51, 159, 0, 0, 0, 0
1, 138
73, 70, 0, '1', 1, 1, 1, 0, 0, 2, ' ', 1, 1, 1, 0, 1, 0, 1, 0, 1, ' '
0.0126963, 0.27303, 49
1, 13.8, 0, 49, 49, 49, 0, 0, 1.5, .51, 1.5, .51, 159, 0, 0, 0, 0
1, 138
81, 80, 0, '1', 1, 1, 1, 0, 0, 2, ' ', 1, 1, 1, 0, 1, 0, 1, 0, 1, ' '
0.00065, 0.03481, 529
...